
##########                                Name:     oleObject79.pdb
##########                DOCK_Rotatable_Bonds:                  12
##########                         Heavy_Atoms:                  53
##########                    Molecular_Weight:             725.376
##########                DOCK_Rotatable_Bonds:                  12
##########                       Formal_Charge:          0.00050066
##########                     HBond_Acceptors:                   8
##########                        HBond_Donors:                   4
##########                         Heavy_Atoms:                  53
##########                          Grid_Score:          -47.859676
##########                     Grid_vdw_energy:          -47.291069
##########                      Grid_es_energy:           -0.568606
##########           Internal_energy_repulsive:           35.968536

@<TRIPOS>MOLECULE
oleObject79.pdb
 102 108 1 0 0
SMALL
NO_CHARGES


@<TRIPOS>ATOM
      1 C         -15.5021   -0.4280   64.4702 C.ar    1  UNL        -0.0620
      2 C         -15.2857    0.7765   63.7866 C.ar    1  UNL        -0.0590
      3 C         -14.5753    0.7985   62.5703 C.ar    1  UNL        -0.0456
      4 C         -14.0733   -0.4136   62.0263 C.ar    1  UNL        -0.0185
      5 C         -14.3022   -1.6161   62.7299 C.ar    1  UNL        -0.0565
      6 C         -15.0090   -1.6260   63.9407 C.ar    1  UNL        -0.0619
      7 C         -13.3362   -0.4602   60.6726 C.3     1  UNL         0.0931
      8 C         -12.1605   -1.4527   60.6034 C.ar    1  UNL         0.0683
      9 C         -11.0058   -1.2864   61.4104 C.ar    1  UNL        -0.0272
     10 C          -9.9671   -2.2298   61.2983 C.ar    1  UNL        -0.0559
     11 C         -10.1069   -3.2978   60.4006 C.ar    1  UNL        -0.0435
     12 C         -11.2832   -3.3877   59.6425 C.ar    1  UNL         0.0272
     13 N         -12.2810   -2.4897   59.7418 N.ar    1  UNL        -0.2587
     14 C         -10.8547   -0.1252   62.3878 C.3     1  UNL        -0.0379
     15 N         -14.2954   -0.5550   59.5367 N.am    1  UNL        -0.2918
     16 C         -13.9304   -0.1098   58.2642 C.2     1  UNL         0.2179
     17 O         -12.9754    0.6368   58.1277 O.2     1  UNL        -0.2772
     18 C         -14.9984   -0.2506   57.1462 C.3     1  UNL         0.0361
     19 C         -15.0734   -1.6846   56.5478 C.3     1  UNL        -0.0412
     20 C         -13.8786   -2.0406   55.6205 C.3     1  UNL        -0.0453
     21 C         -13.5894   -0.9869   54.5101 C.3     1  UNL        -0.0139
     22 C         -12.1963   -1.2921   53.8931 C.3     1  UNL         0.0171
     23 N         -11.9077   -0.3890   52.7605 N.pl3   1  UNL        -0.3290
     24 C         -12.8624   -0.5055   51.6409 C.3     1  UNL         0.0115
     25 C         -14.3075   -0.2459   52.1284 C.3     1  UNL        -0.0368
     26 C         -14.6579   -1.0962   53.3753 C.3     1  UNL        -0.0446
     27 C         -10.7087    0.3268   52.6776 C.ar    1  UNL         0.0476
     28 C         -10.7178    1.7081   52.9533 C.ar    1  UNL        -0.0375
     29 C          -9.5450    2.4723   52.8538 C.ar    1  UNL        -0.0388
     30 C          -8.3382    1.8778   52.4540 C.ar    1  UNL         0.0318
     31 C          -8.3164    0.4953   52.1938 C.ar    1  UNL        -0.0202
     32 C          -9.4865   -0.2761   52.2966 C.ar    1  UNL         0.0636
     33 CL         -9.3624   -1.9739   51.8684 Cl      1  UNL        -0.0822
     34 N          -7.1940    2.6681   52.3661 N.pl3   1  UNL        -0.3149
     35 C          -5.9631    2.4471   51.7506 C.ar    1  UNL         0.0302
     36 C          -5.8513    1.7943   50.5090 C.ar    1  UNL        -0.0402
     37 C          -4.5958    1.6135   49.9073 C.ar    1  UNL        -0.0525
     38 C          -3.4094    2.0856   50.5217 C.ar    1  UNL        -0.0182
     39 C          -3.5424    2.7569   51.7625 C.ar    1  UNL        -0.0525
     40 C          -4.7993    2.9416   52.3611 C.ar    1  UNL        -0.0402
     41 C          -2.0661    1.8925   49.8798 C.ar    1  UNL        -0.0177
     42 C          -0.8663    2.1328   50.5970 C.ar    1  UNL        -0.0439
     43 C           0.4050    1.9590   50.0076 C.ar    1  UNL         0.0111
     44 C           0.4743    1.5348   48.6644 C.ar    1  UNL        -0.0518
     45 C          -0.6974    1.2893   47.9343 C.ar    1  UNL        -0.0609
     46 C          -1.9526    1.4649   48.5345 C.ar    1  UNL        -0.0543
     47 C           1.5715    2.1991   50.7408 C.2     1  UNL         0.1014
     48 N           2.7404    2.0785   50.2276 N.3     1  UNL        -0.2892
     49 N           1.5111    2.5639   52.0287 N.3     1  UNL        -0.2870
     50 C         -13.5519    0.4380   55.1454 C.3     1  UNL        -0.0453
     51 C         -14.7962    0.7704   55.9964 C.3     1  UNL        -0.0412
     52 C         -15.6206   -1.1596   59.7948 C.3     1  UNL         0.0037
     53 C         -14.3966    2.1415   61.8704 C.3     1  UNL        -0.0394
     54 H         -16.0537   -0.4344   65.4053 H       1  UNL         0.0623
     55 H         -15.6792    1.6992   64.2032 H       1  UNL         0.0626
     56 H         -13.9304   -2.5559   62.3356 H       1  UNL         0.0627
     57 H         -15.1761   -2.5622   64.4652 H       1  UNL         0.0623
     58 H         -12.8475    0.5089   60.5597 H       1  UNL         0.0626
     59 H          -9.0658   -2.1385   61.8978 H       1  UNL         0.0627
     60 H          -9.3219   -4.0407   60.2949 H       1  UNL         0.0639
     61 H         -11.4330   -4.2023   58.9350 H       1  UNL         0.0840
     62 H         -10.8818    0.8390   61.8660 H       1  UNL         0.0280
     63 H          -9.9021   -0.1747   62.9298 H       1  UNL         0.0280
     64 H         -11.6556   -0.1291   63.1374 H       1  UNL         0.0280
     65 H         -15.9690   -0.0483   57.6151 H       1  UNL         0.0401
     66 H         -16.0032   -1.7759   55.9721 H       1  UNL         0.0275
     67 H         -15.1440   -2.4225   57.3574 H       1  UNL         0.0275
     68 H         -14.0573   -3.0237   55.1661 H       1  UNL         0.0273
     69 H         -12.9781   -2.1655   56.2333 H       1  UNL         0.0273
     70 H         -12.1698   -2.3325   53.5435 H       1  UNL         0.0474
     71 H         -11.4284   -1.1847   54.6705 H       1  UNL         0.0474
     72 H         -12.8038   -1.5193   51.2246 H       1  UNL         0.0468
     73 H         -12.6113    0.1946   50.8347 H       1  UNL         0.0468
     74 H         -15.0129   -0.4705   51.3188 H       1  UNL         0.0283
     75 H         -14.4320    0.8184   52.3605 H       1  UNL         0.0283
     76 H         -14.7318   -2.1442   53.0565 H       1  UNL         0.0273
     77 H         -15.6541   -0.8192   53.7389 H       1  UNL         0.0273
     78 H         -11.6401    2.1956   53.2555 H       1  UNL         0.0644
     79 H          -9.5792    3.5357   53.0733 H       1  UNL         0.0643
     80 H          -7.3878    0.0084   51.9128 H       1  UNL         0.0659
     81 H          -7.2776    3.5724   52.8124 H       1  UNL         0.1528
     82 H          -6.7367    1.4396   49.9929 H       1  UNL         0.0643
     83 H          -4.5484    1.0894   48.9579 H       1  UNL         0.0630
     84 H          -2.6665    3.1599   52.2610 H       1  UNL         0.0630
     85 H          -4.8675    3.4677   53.3092 H       1  UNL         0.0643
     86 H          -0.9268    2.4524   51.6328 H       1  UNL         0.0637
     87 H           1.4359    1.3806   48.1826 H       1  UNL         0.0630
     88 H          -0.6327    0.9629   46.9001 H       1  UNL         0.0623
     89 H          -2.8433    1.2844   47.9408 H       1  UNL         0.0629
     90 H           3.4105    2.6815   50.7096 H       1  UNL         0.1889
     91 H           0.7462    2.2339   52.6145 H       1  UNL         0.1258
     92 H           2.3575    2.5459   52.5948 H       1  UNL         0.1258
     93 H         -13.4283    1.2113   54.3792 H       1  UNL         0.0273
     94 H         -12.6660    0.5126   55.7863 H       1  UNL         0.0273
     95 H         -15.6875    0.7787   55.3577 H       1  UNL         0.0275
     96 H         -14.7067    1.7894   56.3868 H       1  UNL         0.0275
     97 H         -16.4234   -0.5020   59.4432 H       1  UNL         0.0433
     98 H         -15.7797   -1.3378   60.8644 H       1  UNL         0.0433
     99 H         -15.6900   -2.1183   59.2662 H       1  UNL         0.0433
    100 H         -14.7889    2.9704   62.4727 H       1  UNL         0.0280
    101 H         -14.9273    2.1573   60.9101 H       1  UNL         0.0280
    102 H         -13.3364    2.3510   61.6808 H       1  UNL         0.0280
@<TRIPOS>BOND
     1     1     2   ar
     2     1     6   ar
     3     1    54    1
     4     2     3   ar
     5     2    55    1
     6     3     4   ar
     7     3    53    1
     8     4     5   ar
     9     4     7    1
    10     5     6   ar
    11     5    56    1
    12     6    57    1
    13     7     8    1
    14     7    15    1
    15     7    58    1
    16     8     9   ar
    17     8    13   ar
    18     9    10   ar
    19     9    14    1
    20    10    11   ar
    21    10    59    1
    22    11    12   ar
    23    11    60    1
    24    12    13   ar
    25    12    61    1
    26    14    62    1
    27    14    63    1
    28    14    64    1
    29    15    16   am
    30    15    52    1
    31    16    17    2
    32    16    18    1
    33    18    19    1
    34    18    51    1
    35    18    65    1
    36    19    20    1
    37    19    66    1
    38    19    67    1
    39    20    21    1
    40    20    68    1
    41    20    69    1
    42    21    22    1
    43    21    26    1
    44    21    50    1
    45    22    23    1
    46    22    70    1
    47    22    71    1
    48    23    24    1
    49    23    27    1
    50    24    25    1
    51    24    72    1
    52    24    73    1
    53    25    26    1
    54    25    74    1
    55    25    75    1
    56    26    76    1
    57    26    77    1
    58    27    28   ar
    59    27    32   ar
    60    28    29   ar
    61    28    78    1
    62    29    30   ar
    63    29    79    1
    64    30    31   ar
    65    30    34    1
    66    31    32   ar
    67    31    80    1
    68    32    33    1
    69    34    35    1
    70    34    81    1
    71    35    36   ar
    72    35    40   ar
    73    36    37   ar
    74    36    82    1
    75    37    38   ar
    76    37    83    1
    77    38    39   ar
    78    38    41    1
    79    39    40   ar
    80    39    84    1
    81    40    85    1
    82    41    42   ar
    83    41    46   ar
    84    42    43   ar
    85    42    86    1
    86    43    44   ar
    87    43    47    1
    88    44    45   ar
    89    44    87    1
    90    45    46   ar
    91    45    88    1
    92    46    89    1
    93    47    48    1
    94    47    49    1
    95    48    90    1
    96    49    91    1
    97    49    92    1
    98    50    51    1
    99    50    93    1
   100    50    94    1
   101    51    95    1
   102    51    96    1
   103    52    97    1
   104    52    98    1
   105    52    99    1
   106    53   100    1
   107    53   101    1
   108    53   102    1
@<TRIPOS>SUBSTRUCTURE
     1 UNL         1 TEMP              0 ****  ****    0 ROOT


##########                                Name:    ZINC000621594459
##########                DOCK_Rotatable_Bonds:                  10
##########                         Heavy_Atoms:                  25
##########                    Molecular_Weight:             389.497
##########                DOCK_Rotatable_Bonds:                  10
##########                       Formal_Charge:         -7.7486e-07
##########                     HBond_Acceptors:                  10
##########                        HBond_Donors:                   3
##########                         Heavy_Atoms:                  25
##########                          Grid_Score:          -43.161564
##########                     Grid_vdw_energy:          -40.219688
##########                      Grid_es_energy:           -2.941876
##########           Internal_energy_repulsive:            8.094620

@<TRIPOS>MOLECULE
ZINC000621594459
 48 49 1 0 0
SMALL
USER_CHARGES


@<TRIPOS>ATOM
      1 C1        -14.6491   -4.6190   56.1060 C.3     1  ZINC000621594459   -0.1600
      2 C2        -13.7919   -4.0060   57.2153 C.3     1  ZINC000621594459    0.1300
      3 C3        -14.6395   -3.8310   58.4770 C.3     1  ZINC000621594459   -0.1800
      4 N4        -12.6618   -4.8921   57.5052 N.am    1  ZINC000621594459   -1.1100
      5 S5        -11.1309   -4.2714   57.6191 S.o2    1  ZINC000621594459    2.6200
      6 O6        -10.3291   -5.3828   57.9949 O.2     1  ZINC000621594459   -0.9500
      7 O7        -10.9285   -3.6082   56.3787 O.2     1  ZINC000621594459   -0.9400
      8 C8        -11.2292   -3.0699   58.9746 C.3     1  ZINC000621594459   -0.6600
      9 C9         -9.9202   -2.2817   59.0534 C.3     1  ZINC000621594459    0.1300
     10 N10       -10.0291   -1.2572   60.0949 N.am    1  ZINC000621594459   -0.7200
     11 C11        -9.7367   -1.5633   61.3744 C.2     1  ZINC000621594459    0.5600
     12 O12        -9.3812   -2.6890   61.6641 O.2     1  ZINC000621594459   -0.5200
     13 C13        -9.8483   -0.5298   62.4258 C.ar    1  ZINC000621594459   -0.1500
     14 C14       -10.5068    0.6717   62.1604 C.ar    1  ZINC000621594459   -0.0300
     15 C15       -10.6079    1.6319   63.1461 C.ar    1  ZINC000621594459   -0.1400
     16 C16       -10.0577    1.4058   64.3951 C.ar    1  ZINC000621594459    0.0100
     17 C17        -9.4030    0.2169   64.6646 C.ar    1  ZINC000621594459   -0.6800
     18 S18        -8.7053   -0.0607   66.2586 S.o2    1  ZINC000621594459    2.7000
     19 O19        -9.3098    0.8840   67.1313 O.2     1  ZINC000621594459   -0.9400
     20 O20        -8.7530   -1.4637   66.4788 O.2     1  ZINC000621594459   -0.9500
     21 N21        -7.1020    0.3444   66.1693 N.am    1  ZINC000621594459   -1.0900
     22 C22        -6.7103    1.7083   65.8051 C.3     1  ZINC000621594459    0.0800
     23 C23        -5.5362    2.3320   66.5623 C.3     1  ZINC000621594459   -0.1800
     24 C24        -5.3615    1.8933   65.1070 C.3     1  ZINC000621594459   -0.1900
     25 C25        -9.3003   -0.7538   63.6900 C.ar    1  ZINC000621594459    0.0400
     26 H26       -15.4899   -3.9597   55.8903 H       1  ZINC000621594459    0.0700
     27 H27       -14.0452   -4.7437   55.2072 H       1  ZINC000621594459    0.0700
     28 H28       -15.0228   -5.5902   56.4303 H       1  ZINC000621594459    0.0600
     29 H29       -13.4182   -3.0348   56.8910 H       1  ZINC000621594459    0.0900
     30 H30       -15.0132   -4.8022   58.8013 H       1  ZINC000621594459    0.0700
     31 H31       -14.0288   -3.3945   59.2673 H       1  ZINC000621594459    0.0600
     32 H32       -15.4803   -3.1717   58.2613 H       1  ZINC000621594459    0.0700
     33 H33       -12.8104   -5.8426   57.6305 H       1  ZINC000621594459    0.4200
     34 H34       -12.0561   -2.3836   58.7925 H       1  ZINC000621594459    0.1400
     35 H35       -11.3938   -3.5959   59.9150 H       1  ZINC000621594459    0.1400
     36 H36        -9.1018   -2.9599   59.2951 H       1  ZINC000621594459    0.0900
     37 H37        -9.7251   -1.8044   58.0931 H       1  ZINC000621594459    0.0900
     38 H38       -10.3115   -0.3585   59.8636 H       1  ZINC000621594459    0.4000
     39 H39       -10.9362    0.8496   61.1855 H       1  ZINC000621594459    0.1300
     40 H40       -11.1172    2.5620   62.9420 H       1  ZINC000621594459    0.1400
     41 H41       -10.1392    2.1608   65.1630 H       1  ZINC000621594459    0.1500
     42 H42        -6.4223   -0.3214   66.3580 H       1  ZINC000621594459    0.4200
     43 H43        -7.5255    2.3680   65.5080 H       1  ZINC000621594459    0.1400
     44 H44        -5.5789    3.4024   66.7637 H       1  ZINC000621594459    0.1100
     45 H45        -5.0552    1.7276   67.3314 H       1  ZINC000621594459    0.1000
     46 H46        -4.7655    1.0002   64.9187 H       1  ZINC000621594459    0.1000
     47 H47        -5.2891    2.6750   64.3509 H       1  ZINC000621594459    0.1000
     48 H48        -8.7895   -1.6814   63.9017 H       1  ZINC000621594459    0.1600
@<TRIPOS>BOND
     1     1     2    1
     2     1    26    1
     3     1    27    1
     4     1    28    1
     5     2     3    1
     6     2     4    1
     7     2    29    1
     8     3    30    1
     9     3    31    1
    10     3    32    1
    11     4     5   am
    12     4    33    1
    13     5     6    2
    14     5     7    2
    15     5     8    1
    16     8     9    1
    17     8    34    1
    18     8    35    1
    19     9    10    1
    20     9    36    1
    21     9    37    1
    22    10    11   am
    23    10    38    1
    24    11    12    2
    25    11    13    1
    26    13    25   ar
    27    13    14   ar
    28    14    15   ar
    29    14    39    1
    30    15    16   ar
    31    15    40    1
    32    16    17   ar
    33    16    41    1
    34    17    18    1
    35    17    25   ar
    36    18    19    2
    37    18    20    2
    38    18    21   am
    39    21    22    1
    40    21    42    1
    41    22    24    1
    42    22    23    1
    43    22    43    1
    44    23    24    1
    45    23    44    1
    46    23    45    1
    47    24    46    1
    48    24    47    1
    49    25    48    1
@<TRIPOS>SUBSTRUCTURE
     1 ZINC000621594459        1 TEMP              0 ****  ****    0 ROOT


##########                                Name:     oleObject14.pdb
##########                DOCK_Rotatable_Bonds:                   9
##########                         Heavy_Atoms:                  33
##########                    Molecular_Weight:             484.424
##########                DOCK_Rotatable_Bonds:                   9
##########                       Formal_Charge:         0.000299782
##########                     HBond_Acceptors:                   7
##########                        HBond_Donors:                   1
##########                         Heavy_Atoms:                  33
##########                          Grid_Score:          -43.022408
##########                     Grid_vdw_energy:          -43.025375
##########                      Grid_es_energy:            0.002968
##########           Internal_energy_repulsive:           14.570638

@<TRIPOS>MOLECULE
oleObject14.pdb
 60 63 1 0 0
SMALL
NO_CHARGES


@<TRIPOS>ATOM
      1 C         -10.7764   -1.1680   61.7052 C.ar    1  UNL         0.0422
      2 C          -9.7444   -1.6886   60.9086 C.ar    1  UNL        -0.0408
      3 C         -10.0460   -2.5512   59.8414 C.ar    1  UNL        -0.0288
      4 C         -11.3860   -2.8981   59.5656 C.ar    1  UNL         0.0937
      5 C         -12.4160   -2.3703   60.3707 C.ar    1  UNL         0.0723
      6 C         -12.1115   -1.5081   61.4372 C.ar    1  UNL        -0.0221
      7 CL        -14.0946   -2.7750   60.0630 Cl      1  UNL        -0.0814
      8 O         -11.7248   -3.7428   58.5259 O.3     1  UNL        -0.3432
      9 C         -12.0462   -3.2847   57.2006 C.3     1  UNL         0.0661
     10 C         -12.3755   -4.5231   56.3415 C.3     1  UNL         0.0222
     11 N         -12.5628   -4.2123   54.9069 N.4     1  UNL        -0.3010
     12 C         -13.5892   -3.1785   54.6369 C.3     1  UNL        -0.0010
     13 C         -13.8206   -2.9779   53.1225 C.3     1  UNL        -0.0289
     14 C         -12.5139   -2.6759   52.3497 C.3     1  UNL         0.0382
     15 C         -11.4254   -3.7149   52.7196 C.3     1  UNL        -0.0289
     16 C         -11.2718   -3.9265   54.2442 C.3     1  UNL        -0.0010
     17 C         -12.0385   -1.2194   52.5759 C.2     1  UNL         0.2156
     18 O         -12.8247   -0.3022   52.7276 O.2     1  UNL        -0.2774
     19 N         -10.6803   -0.9405   52.6567 N.am    1  UNL        -0.3025
     20 C         -10.0413    0.3722   52.8669 C.3     1  UNL         0.0900
     21 C          -9.6714    0.6275   54.3268 C.ar    1  UNL        -0.0217
     22 C         -10.4451    0.0962   55.3785 C.ar    1  UNL        -0.0568
     23 C         -10.0972    0.3500   56.7153 C.ar    1  UNL        -0.0619
     24 C          -8.9712    1.1340   57.0119 C.ar    1  UNL        -0.0622
     25 C          -8.1921    1.6615   55.9703 C.ar    1  UNL        -0.0619
     26 C          -8.5402    1.4075   54.6337 C.ar    1  UNL        -0.0568
     27 C          -8.8274    0.5598   51.9619 C.ar    1  UNL         0.0652
     28 C          -8.0230   -0.5287   51.5654 C.ar    1  UNL        -0.0383
     29 C          -6.9136   -0.2909   50.7383 C.ar    1  UNL        -0.0588
     30 C          -6.6460    1.0272   50.3373 C.ar    1  UNL        -0.0438
     31 C          -7.4981    2.0535   50.7800 C.ar    1  UNL         0.0272
     32 N          -8.5638    1.8270   51.5744 N.ar    1  UNL        -0.2590
     33 CL        -10.3973   -0.0934   63.0342 Cl      1  UNL        -0.0843
     34 H          -8.7113   -1.4247   61.1165 H       1  UNL         0.0639
     35 H          -9.2325   -2.9414   59.2385 H       1  UNL         0.0652
     36 H         -12.9094   -1.1046   62.0542 H       1  UNL         0.0655
     37 H         -11.1928   -2.7437   56.7743 H       1  UNL         0.0586
     38 H         -12.9182   -2.6187   57.2298 H       1  UNL         0.0586
     39 H         -13.2988   -4.9660   56.7373 H       1  UNL         0.0455
     40 H         -11.5760   -5.2658   56.4620 H       1  UNL         0.0455
     41 H         -13.2812   -2.2251   55.0859 H       1  UNL         0.0431
     42 H         -14.5482   -3.4612   55.0861 H       1  UNL         0.0431
     43 H         -14.5501   -2.1751   52.9648 H       1  UNL         0.0288
     44 H         -14.2696   -3.8929   52.7149 H       1  UNL         0.0288
     45 H         -12.7218   -2.8229   51.2865 H       1  UNL         0.0402
     46 H         -10.4615   -3.4207   52.2849 H       1  UNL         0.0288
     47 H         -11.6920   -4.6781   52.2655 H       1  UNL         0.0288
     48 H         -10.8181   -3.0334   54.6920 H       1  UNL         0.0431
     49 H         -10.5776   -4.7606   54.4091 H       1  UNL         0.0431
     50 H         -10.0694   -1.7474   52.6634 H       1  UNL         0.1504
     51 H         -10.7737    1.1313   52.5638 H       1  UNL         0.0624
     52 H         -11.3225   -0.5064   55.1629 H       1  UNL         0.0626
     53 H         -10.7008   -0.0596   57.5202 H       1  UNL         0.0623
     54 H          -8.7019    1.3300   58.0459 H       1  UNL         0.0623
     55 H          -7.3183    2.2654   56.1982 H       1  UNL         0.0623
     56 H          -7.9294    1.8187   53.8347 H       1  UNL         0.0626
     57 H          -8.2523   -1.5386   51.8916 H       1  UNL         0.0643
     58 H          -6.2761   -1.1092   50.4163 H       1  UNL         0.0624
     59 H          -5.7970    1.2505   49.6979 H       1  UNL         0.0639
     60 H          -7.3219    3.0887   50.4902 H       1  UNL         0.0840
@<TRIPOS>BOND
     1     1     2   ar
     2     1     6   ar
     3     1    33    1
     4     2     3   ar
     5     2    34    1
     6     3     4   ar
     7     3    35    1
     8     4     5   ar
     9     4     8    1
    10     5     6   ar
    11     5     7    1
    12     6    36    1
    13     8     9    1
    14     9    10    1
    15     9    37    1
    16     9    38    1
    17    10    11    1
    18    10    39    1
    19    10    40    1
    20    11    12    1
    21    11    16    1
    22    12    13    1
    23    12    41    1
    24    12    42    1
    25    13    14    1
    26    13    43    1
    27    13    44    1
    28    14    15    1
    29    14    17    1
    30    14    45    1
    31    15    16    1
    32    15    46    1
    33    15    47    1
    34    16    48    1
    35    16    49    1
    36    17    18    2
    37    17    19   am
    38    19    20    1
    39    19    50    1
    40    20    21    1
    41    20    27    1
    42    20    51    1
    43    21    22   ar
    44    21    26   ar
    45    22    23   ar
    46    22    52    1
    47    23    24   ar
    48    23    53    1
    49    24    25   ar
    50    24    54    1
    51    25    26   ar
    52    25    55    1
    53    26    56    1
    54    27    28   ar
    55    27    32   ar
    56    28    29   ar
    57    28    57    1
    58    29    30   ar
    59    29    58    1
    60    30    31   ar
    61    30    59    1
    62    31    32   ar
    63    31    60    1
@<TRIPOS>SUBSTRUCTURE
     1 UNL         1 TEMP              0 ****  ****    0 ROOT


##########                                Name:    ZINC001591898574
##########                DOCK_Rotatable_Bonds:                  10
##########                         Heavy_Atoms:                  26
##########                    Molecular_Weight:             383.434
##########                DOCK_Rotatable_Bonds:                  10
##########                       Formal_Charge:         5.96046e-08
##########                     HBond_Acceptors:                  13
##########                        HBond_Donors:                   3
##########                         Heavy_Atoms:                  26
##########                          Grid_Score:          -42.729267
##########                     Grid_vdw_energy:          -39.042278
##########                      Grid_es_energy:           -3.686990
##########           Internal_energy_repulsive:           10.525116

@<TRIPOS>MOLECULE
ZINC001591898574
 47 48 1 0 0
SMALL
USER_CHARGES


@<TRIPOS>ATOM
      1 C1        -14.3862   -5.4909   56.9667 C.3     1  ZINC001591898574   -0.1100
      2 C2        -13.2353   -4.6043   56.5660 C.ar    1  ZINC001591898574    0.2300
      3 C3        -13.0514   -4.2536   55.2402 C.ar    1  ZINC001591898574   -0.2400
      4 C4        -11.9718   -3.4295   54.9134 C.ar    1  ZINC001591898574    0.3000
      5 C5        -11.7321   -3.0249   53.5059 C.2     1  ZINC001591898574    0.2100
      6 N6        -12.4468   -3.3724   52.4540 N.2     1  ZINC001591898574   -0.2500
      7 N7        -11.9185   -2.8177   51.4176 N.pl3   1  ZINC001591898574   -0.2200
      8 N8        -10.8921   -2.1300   51.7791 N.2     1  ZINC001591898574   -0.0400
      9 N9        -10.7500   -2.2301   53.0573 N.2     1  ZINC001591898574   -0.2500
     10 N10       -11.1619   -3.0126   55.8833 N.ar    1  ZINC001591898574   -0.5500
     11 C11       -11.3740   -3.3718   57.1397 C.ar    1  ZINC001591898574    0.5800
     12 N12       -10.5125   -2.9205   58.1247 N.pl3   1  ZINC001591898574   -0.7000
     13 C13       -10.4425   -3.6166   59.4118 C.3     1  ZINC001591898574    0.1400
     14 C14        -9.4502   -2.8969   60.3275 C.3     1  ZINC001591898574   -0.1500
     15 C15       -10.1520   -1.7275   61.0209 C.3     1  ZINC001591898574    0.1200
     16 N16        -9.3013   -1.2172   62.0989 N.am    1  ZINC001591898574   -0.7300
     17 C17        -9.8594   -0.6516   63.1875 C.2     1  ZINC001591898574    0.4900
     18 O18       -11.0661   -0.5665   63.2754 O.2     1  ZINC001591898574   -0.5300
     19 C19        -8.9842   -0.1251   64.2956 C.3     1  ZINC001591898574    0.1000
     20 N20        -9.6103    1.0572   64.8924 N.am    1  ZINC001591898574   -0.9800
     21 C21       -10.3399    2.0054   64.0469 C.3     1  ZINC001591898574    0.1000
     22 S22        -9.4934    1.3220   66.5230 S.o2    1  ZINC001591898574    2.6100
     23 C23        -7.7107    1.4467   66.8346 C.3     1  ZINC001591898574   -0.6600
     24 O24       -10.1233    2.5804   66.7198 O.2     1  ZINC001591898574   -0.9500
     25 O25       -10.0204    0.1394   67.1087 O.2     1  ZINC001591898574   -0.9600
     26 N26       -12.3927   -4.1482   57.4792 N.ar    1  ZINC001591898574   -0.5600
     27 H27       -15.2562   -4.8755   57.1960 H       1  ZINC001591898574    0.0900
     28 H28       -14.6260   -6.1679   56.1468 H       1  ZINC001591898574    0.0900
     29 H29       -14.1089   -6.0705   57.8472 H       1  ZINC001591898574    0.0900
     30 H30       -13.7266   -4.6090   54.4759 H       1  ZINC001591898574    0.1600
     31 H31       -12.2433   -2.9049   50.5077 H       1  ZINC001591898574    0.4800
     32 H32        -9.9551   -2.1434   57.9626 H       1  ZINC001591898574    0.4200
     33 H33       -11.4285   -3.6209   59.8765 H       1  ZINC001591898574    0.0700
     34 H34       -10.1114   -4.6428   59.2524 H       1  ZINC001591898574    0.0700
     35 H35        -9.0773   -3.5936   61.0781 H       1  ZINC001591898574    0.0800
     36 H36        -8.6164   -2.5204   59.7350 H       1  ZINC001591898574    0.0800
     37 H37       -10.3367   -0.9337   60.2972 H       1  ZINC001591898574    0.0700
     38 H38       -11.1004   -2.0679   61.4368 H       1  ZINC001591898574    0.0700
     39 H39        -8.3363   -1.2864   62.0292 H       1  ZINC001591898574    0.4000
     40 H40        -8.8606   -0.8945   65.0577 H       1  ZINC001591898574    0.1200
     41 H41        -8.0090    0.1454   63.8909 H       1  ZINC001591898574    0.1300
     42 H42       -11.3865    1.7070   63.9858 H       1  ZINC001591898574    0.0600
     43 H43       -10.2714    3.0040   64.4781 H       1  ZINC001591898574    0.0700
     44 H44        -9.9047    2.0105   63.0476 H       1  ZINC001591898574    0.0700
     45 H45        -7.2980    2.2741   66.2574 H       1  ZINC001591898574    0.1300
     46 H46        -7.5390    1.6230   67.8965 H       1  ZINC001591898574    0.1200
     47 H47        -7.2240    0.5178   66.5373 H       1  ZINC001591898574    0.1300
@<TRIPOS>BOND
     1     1     2    1
     2     1    27    1
     3     1    28    1
     4     1    29    1
     5     2    26   ar
     6     2     3   ar
     7     3     4   ar
     8     3    30    1
     9     4     5    1
    10     4    10   ar
    11     5     9    1
    12     5     6    2
    13     6     7    1
    14     7     8    1
    15     7    31    1
    16     8     9    2
    17    10    11   ar
    18    11    12    1
    19    11    26   ar
    20    12    13    1
    21    12    32    1
    22    13    14    1
    23    13    33    1
    24    13    34    1
    25    14    15    1
    26    14    35    1
    27    14    36    1
    28    15    16    1
    29    15    37    1
    30    15    38    1
    31    16    17   am
    32    16    39    1
    33    17    18    2
    34    17    19    1
    35    19    20    1
    36    19    40    1
    37    19    41    1
    38    20    21    1
    39    20    22   am
    40    21    42    1
    41    21    43    1
    42    21    44    1
    43    22    23    1
    44    22    24    2
    45    22    25    2
    46    23    45    1
    47    23    46    1
    48    23    47    1
@<TRIPOS>SUBSTRUCTURE
     1 ZINC001591898574        1 TEMP              0 ****  ****    0 ROOT


##########                                Name:    ZINC000770814339
##########                DOCK_Rotatable_Bonds:                  13
##########                         Heavy_Atoms:                  28
##########                    Molecular_Weight:             409.423
##########                DOCK_Rotatable_Bonds:                  13
##########                       Formal_Charge:          -0.0100008
##########                     HBond_Acceptors:                  12
##########                        HBond_Donors:                   4
##########                         Heavy_Atoms:                  28
##########                          Grid_Score:          -41.764404
##########                     Grid_vdw_energy:          -39.018829
##########                      Grid_es_energy:           -2.745575
##########           Internal_energy_repulsive:            8.449204

@<TRIPOS>MOLECULE
ZINC000770814339
 47 48 1 0 0
SMALL
USER_CHARGES


@<TRIPOS>ATOM
      1 C1         -4.3536    1.7829   66.3533 C.3     1  ZINC000770814339   -0.1500
      2 C2         -5.8047    1.6222   65.8954 C.3     1  ZINC000770814339    0.0600
      3 O3         -6.3681    0.4211   66.4854 O.3     1  ZINC000770814339   -0.3500
      4 C4         -7.6342    0.1178   66.1588 C.2     1  ZINC000770814339    0.4700
      5 O5         -8.2374   -0.7175   66.7896 O.2     1  ZINC000770814339   -0.4800
      6 C6         -8.3032    0.8192   65.0048 C.3     1  ZINC000770814339    0.0700
      7 O7         -9.4336    0.0577   64.5753 O.3     1  ZINC000770814339   -0.1800
      8 N8         -9.1854   -0.7513   63.4400 N.2     1  ZINC000770814339   -0.2800
      9 C9        -10.0246   -0.7502   62.4431 C.2     1  ZINC000770814339    0.1800
     10 C10        -9.7657   -1.5983   61.2556 C.2     1  ZINC000770814339    0.5900
     11 O11        -9.5054   -2.7768   61.3958 O.2     1  ZINC000770814339   -0.5100
     12 N12        -9.8189   -1.0622   60.0202 N.am    1  ZINC000770814339   -0.7000
     13 C13        -9.5647   -1.9009   58.8463 C.3     1  ZINC000770814339    0.1500
     14 C14       -10.8499   -2.5548   58.4082 C.ar    1  ZINC000770814339   -0.0600
     15 C15       -10.8664   -3.8985   58.0840 C.ar    1  ZINC000770814339   -0.1200
     16 C16       -12.0453   -4.4982   57.6822 C.ar    1  ZINC000770814339   -0.0200
     17 C17       -13.2078   -3.7543   57.6051 C.ar    1  ZINC000770814339   -0.6700
     18 S18       -14.7104   -4.5186   57.0924 S.o2    1  ZINC000770814339    2.7000
     19 N19       -15.7248   -3.3129   56.5830 N.am    1  ZINC000770814339   -1.2500
     20 O20       -14.3955   -5.2909   55.9419 O.2     1  ZINC000770814339   -0.9600
     21 O21       -15.2990   -5.0709   58.2620 O.2     1  ZINC000770814339   -0.9600
     22 C22       -13.1917   -2.4110   57.9306 C.ar    1  ZINC000770814339   -0.0200
     23 C23       -12.0136   -1.8121   58.3361 C.ar    1  ZINC000770814339   -0.1200
     24 C24       -11.2332    0.0962   62.4965 C.2     1  ZINC000770814339    0.0600
     25 C25       -12.5353   -0.3419   62.6079 C.2     1  ZINC000770814339   -0.2000
     26 C26       -13.3601    0.7819   62.6233 C.2     1  ZINC000770814339    0.0400
     27 N27       -12.6127    1.8524   62.5269 N.2     1  ZINC000770814339   -0.2600
     28 N28       -11.2708    1.4594   62.4506 N.pl3   1  ZINC000770814339   -0.4400
     29 H29        -3.9306    2.6846   65.9104 H       1  ZINC000770814339    0.0800
     30 H30        -4.3223    1.8627   67.4399 H       1  ZINC000770814339    0.0700
     31 H31        -3.7743    0.9160   66.0358 H       1  ZINC000770814339    0.0700
     32 H32        -6.3840    2.4891   66.2129 H       1  ZINC000770814339    0.0700
     33 H33        -5.8360    1.5423   64.8088 H       1  ZINC000770814339    0.0700
     34 H34        -8.6312    1.8090   65.3222 H       1  ZINC000770814339    0.1100
     35 H35        -7.5970    0.9174   64.1805 H       1  ZINC000770814339    0.1100
     36 H36       -10.0254   -0.1211   59.9083 H       1  ZINC000770814339    0.4100
     37 H37        -9.1765   -1.2838   58.0360 H       1  ZINC000770814339    0.0900
     38 H38        -8.8343   -2.6693   59.0999 H       1  ZINC000770814339    0.0900
     39 H39        -9.9580   -4.4797   58.1442 H       1  ZINC000770814339    0.1400
     40 H40       -12.0579   -5.5478   57.4283 H       1  ZINC000770814339    0.1500
     41 H41       -16.6123   -3.5307   56.2580 H       1  ZINC000770814339    0.4200
     42 H42       -15.4313   -2.3887   56.6097 H       1  ZINC000770814339    0.4200
     43 H43       -14.1001   -1.8298   57.8708 H       1  ZINC000770814339    0.1500
     44 H44       -12.0010   -0.7626   58.5905 H       1  ZINC000770814339    0.1400
     45 H45       -12.8584   -1.3704   62.6716 H       1  ZINC000770814339    0.1700
     46 H46       -14.4372    0.7711   62.7013 H       1  ZINC000770814339    0.1900
     47 H47       -10.5055    2.0502   62.3731 H       1  ZINC000770814339    0.4500
@<TRIPOS>BOND
     1     1     2    1
     2     1    29    1
     3     1    30    1
     4     1    31    1
     5     2     3    1
     6     2    32    1
     7     2    33    1
     8     3     4    1
     9     4     5    2
    10     4     6    1
    11     6     7    1
    12     6    34    1
    13     6    35    1
    14     7     8    1
    15     8     9    2
    16     9    10    1
    17     9    24    1
    18    10    11    2
    19    10    12   am
    20    12    13    1
    21    12    36    1
    22    13    14    1
    23    13    37    1
    24    13    38    1
    25    14    23   ar
    26    14    15   ar
    27    15    16   ar
    28    15    39    1
    29    16    17   ar
    30    16    40    1
    31    17    18    1
    32    17    22   ar
    33    18    19   am
    34    18    20    2
    35    18    21    2
    36    19    41    1
    37    19    42    1
    38    22    23   ar
    39    22    43    1
    40    23    44    1
    41    24    28    1
    42    24    25    2
    43    25    26    1
    44    25    45    1
    45    26    27    2
    46    26    46    1
    47    27    28    1
    48    28    47    1
@<TRIPOS>SUBSTRUCTURE
     1 ZINC000770814339        1 TEMP              0 ****  ****    0 ROOT


##########                                Name:    ZINC000011620562
##########                DOCK_Rotatable_Bonds:                   9
##########                         Heavy_Atoms:                  29
##########                    Molecular_Weight:             417.448
##########                DOCK_Rotatable_Bonds:                   9
##########                       Formal_Charge:           0.0299999
##########                     HBond_Acceptors:                  12
##########                        HBond_Donors:                   1
##########                         Heavy_Atoms:                  29
##########                          Grid_Score:          -41.704105
##########                     Grid_vdw_energy:          -40.690208
##########                      Grid_es_energy:           -1.013898
##########           Internal_energy_repulsive:           11.286878

@<TRIPOS>MOLECULE
ZINC000011620562
 48 50 1 0 0
SMALL
USER_CHARGES


@<TRIPOS>ATOM
      1 C1         -9.2688   -1.7155   61.6607 C.3     1  ZINC000011620562    0.0400
      2 O2         -9.2957   -3.0008   60.9859 O.3     1  ZINC000011620562   -0.3500
      3 C3        -10.2043   -3.1580   60.0103 C.2     1  ZINC000011620562    0.4600
      4 O4        -10.3010   -4.2188   59.4401 O.2     1  ZINC000011620562   -0.5000
      5 C5        -11.1037   -2.0114   59.6264 C.3     1  ZINC000011620562    0.1300
      6 N6        -12.3698   -2.5360   59.1089 N.am    1  ZINC000011620562   -0.7200
      7 C7        -13.4280   -2.6759   59.9319 C.2     1  ZINC000011620562    0.5400
      8 O8        -13.3324   -2.3659   61.1005 O.2     1  ZINC000011620562   -0.5200
      9 C9        -14.7299   -3.2173   59.3999 C.3     1  ZINC000011620562   -0.1600
     10 S10       -14.8705   -2.8271   57.6381 S.3     1  ZINC000011620562    0.1400
     11 C11       -14.5713   -4.4202   56.9471 C.2     1  ZINC000011620562    0.2100
     12 N12       -14.8439   -5.5794   57.5071 N.2     1  ZINC000011620562   -0.3400
     13 N13       -14.4996   -6.5447   56.7332 N.2     1  ZINC000011620562   -0.0300
     14 N14       -13.9908   -6.0852   55.6416 N.2     1  ZINC000011620562   -0.0800
     15 N15       -14.0222   -4.6829   55.7360 N.pl3   1  ZINC000011620562   -0.2600
     16 C16       -13.5730   -3.7512   54.7805 C.2     1  ZINC000011620562   -0.1300
     17 C17       -14.3252   -3.1784   53.8136 C.2     1  ZINC000011620562    0.2500
     18 C18       -15.7917   -3.4284   53.5728 C.3     1  ZINC000011620562   -0.1100
     19 N19       -13.5274   -2.3327   53.0909 N.pl3   1  ZINC000011620562   -0.3700
     20 C20       -13.9525   -1.5156   51.9517 C.3     1  ZINC000011620562    0.0900
     21 N21       -12.2347   -2.3827   53.6286 N.am    1  ZINC000011620562   -0.3600
     22 C22       -11.1248   -1.6639   53.1736 C.ar    1  ZINC000011620562    0.1400
     23 C23       -10.2072   -2.2657   52.3220 C.ar    1  ZINC000011620562   -0.1300
     24 C24        -9.1125   -1.5529   51.8741 C.ar    1  ZINC000011620562   -0.1000
     25 C25        -8.9293   -0.2414   52.2725 C.ar    1  ZINC000011620562   -0.1100
     26 C26        -9.8407    0.3606   53.1206 C.ar    1  ZINC000011620562   -0.1000
     27 C27       -10.9407   -0.3448   53.5675 C.ar    1  ZINC000011620562   -0.1000
     28 C28       -12.2529   -3.2435   54.6664 C.2     1  ZINC000011620562    0.5500
     29 O29       -11.3061   -3.5377   55.3733 O.2     1  ZINC000011620562   -0.5000
     30 H30       -10.2359   -1.5304   62.1284 H       1  ZINC000011620562    0.0700
     31 H31        -8.4912   -1.7223   62.4245 H       1  ZINC000011620562    0.1100
     32 H32        -9.0593   -0.9288   60.9358 H       1  ZINC000011620562    0.0700
     33 H33       -11.2978   -1.3927   60.5026 H       1  ZINC000011620562    0.1200
     34 H34       -10.6181   -1.4103   58.8576 H       1  ZINC000011620562    0.1200
     35 H35       -12.4466   -2.7827   58.1739 H       1  ZINC000011620562    0.4200
     36 H36       -14.7564   -4.2985   59.5359 H       1  ZINC000011620562    0.1400
     37 H37       -15.5603   -2.7626   59.9402 H       1  ZINC000011620562    0.1400
     38 H38       -16.1620   -4.1489   54.3020 H       1  ZINC000011620562    0.1000
     39 H39       -16.3414   -2.4927   53.6750 H       1  ZINC000011620562    0.1000
     40 H40       -15.9323   -3.8244   52.5671 H       1  ZINC000011620562    0.1000
     41 H41       -15.0038   -1.7086   51.7383 H       1  ZINC000011620562    0.1100
     42 H42       -13.8179   -0.4607   52.1909 H       1  ZINC000011620562    0.0900
     43 H43       -13.3519   -1.7696   51.0782 H       1  ZINC000011620562    0.0900
     44 H44       -10.3496   -3.2901   52.0109 H       1  ZINC000011620562    0.1300
     45 H45        -8.3984   -2.0204   51.2123 H       1  ZINC000011620562    0.1300
     46 H46        -8.0723    0.3138   51.9207 H       1  ZINC000011620562    0.1300
     47 H47        -9.6943    1.3847   53.4303 H       1  ZINC000011620562    0.1400
     48 H48       -11.6523    0.1260   54.2296 H       1  ZINC000011620562    0.1400
@<TRIPOS>BOND
     1     1     2    1
     2     1    30    1
     3     1    31    1
     4     1    32    1
     5     2     3    1
     6     3     4    2
     7     3     5    1
     8     5     6    1
     9     5    33    1
    10     5    34    1
    11     6     7   am
    12     6    35    1
    13     7     8    2
    14     7     9    1
    15     9    10    1
    16     9    36    1
    17     9    37    1
    18    10    11    1
    19    11    15    1
    20    11    12    2
    21    12    13    1
    22    13    14    2
    23    14    15    1
    24    15    16    1
    25    16    28    1
    26    16    17    2
    27    17    18    1
    28    17    19    1
    29    18    38    1
    30    18    39    1
    31    18    40    1
    32    19    20    1
    33    19    21    1
    34    20    41    1
    35    20    42    1
    36    20    43    1
    37    21    22    1
    38    21    28   am
    39    22    27   ar
    40    22    23   ar
    41    23    24   ar
    42    23    44    1
    43    24    25   ar
    44    24    45    1
    45    25    26   ar
    46    25    46    1
    47    26    27   ar
    48    26    47    1
    49    27    48    1
    50    28    29    2
@<TRIPOS>SUBSTRUCTURE
     1 ZINC000011620562        1 TEMP              0 ****  ****    0 ROOT


##########                                Name:    ZINC001596273020
##########                DOCK_Rotatable_Bonds:                  11
##########                         Heavy_Atoms:                  25
##########                    Molecular_Weight:             355.478
##########                DOCK_Rotatable_Bonds:                  11
##########                       Formal_Charge:          -0.0499996
##########                     HBond_Acceptors:                   7
##########                        HBond_Donors:                   2
##########                         Heavy_Atoms:                  25
##########                          Grid_Score:          -41.646053
##########                     Grid_vdw_energy:          -34.987873
##########                      Grid_es_energy:           -6.658179
##########           Internal_energy_repulsive:           21.403061

@<TRIPOS>MOLECULE
ZINC001596273020
 58 59 1 0 0
SMALL
USER_CHARGES


@<TRIPOS>ATOM
      1 C1        -10.7288    3.5595   64.4252 C.3     1  ZINC001596273020   -0.1900
      2 C2        -10.6727    2.0449   64.2157 C.3     1  ZINC001596273020   -0.0200
      3 N3         -9.2967    1.5729   64.4200 N.4     1  ZINC001596273020   -0.3900
      4 H4         -8.6704    2.0944   63.8251 H       1  ZINC001596273020    0.4300
      5 C5         -8.9150    1.7698   65.8249 C.3     1  ZINC001596273020   -0.0100
      6 C6         -7.4394    1.4093   66.0076 C.3     1  ZINC001596273020   -0.1900
      7 C7         -9.2141    0.1449   64.0856 C.3     1  ZINC001596273020   -0.0100
      8 C8         -9.8473   -0.0951   62.7135 C.3     1  ZINC001596273020    0.0300
      9 O9         -9.4891   -1.3966   62.2448 O.3     1  ZINC001596273020   -0.3900
     10 C10       -10.1514   -1.7827   61.0388 C.3     1  ZINC001596273020    0.0500
     11 C11        -9.2597   -2.7464   60.2534 C.3     1  ZINC001596273020    0.1400
     12 N12       -10.0705   -3.4735   59.2735 N.am    1  ZINC001596273020   -0.7500
     13 C13       -10.3018   -2.9368   58.0590 C.2     1  ZINC001596273020    0.7200
     14 O14        -9.8387   -1.8485   57.7772 O.2     1  ZINC001596273020   -0.6000
     15 N15       -11.0464   -3.6064   57.1571 N.am    1  ZINC001596273020   -0.6300
     16 C16       -11.6970   -4.9302   57.3187 C.3     1  ZINC001596273020    0.1100
     17 C17       -13.0864   -4.7388   56.6449 C.3     1  ZINC001596273020   -0.0800
     18 H18       -13.4064   -5.6758   56.1891 H       1  ZINC001596273020    0.1200
     19 C19       -14.0668   -4.3359   57.7282 C.3     1  ZINC001596273020   -0.1000
     20 C20       -15.1946   -3.4558   57.2078 C.3     1  ZINC001596273020   -0.1200
     21 C21       -14.5695   -2.1991   56.5875 C.3     1  ZINC001596273020   -0.1200
     22 C22       -13.8291   -2.6276   55.3247 C.3     1  ZINC001596273020   -0.0800
     23 C23       -12.8291   -3.7085   55.5674 C.3     1  ZINC001596273020   -0.1400
     24 C24       -12.7504   -4.4897   54.2811 C.2     1  ZINC001596273020    0.5000
     25 O25       -13.5676   -5.3638   54.0478 O.co2   1  ZINC001596273020   -0.6900
     26 O26       -11.8694   -4.2476   53.4737 O.co2   1  ZINC001596273020   -0.6900
     27 C27       -11.4054   -3.1833   55.7816 C.3     1  ZINC001596273020    0.1600
     28 H28       -10.5180    3.7898   65.4694 H       1  ZINC001596273020    0.0800
     29 H29        -9.9861    4.0419   63.7897 H       1  ZINC001596273020    0.0800
     30 H30       -11.7221    3.9256   64.1656 H       1  ZINC001596273020    0.1000
     31 H31       -11.3348    1.5547   64.9295 H       1  ZINC001596273020    0.1300
     32 H32       -10.9918    1.8064   63.2011 H       1  ZINC001596273020    0.1300
     33 H33        -9.0713    2.8124   66.1012 H       1  ZINC001596273020    0.1300
     34 H34        -9.5268    1.1298   66.4606 H       1  ZINC001596273020    0.1300
     35 H35        -7.3025    0.3413   65.8382 H       1  ZINC001596273020    0.0800
     36 H36        -6.8371    1.9707   65.2933 H       1  ZINC001596273020    0.0800
     37 H37        -7.1273    1.6593   67.0217 H       1  ZINC001596273020    0.1000
     38 H38        -8.1688   -0.1629   64.0622 H       1  ZINC001596273020    0.1400
     39 H39        -9.7473   -0.4360   64.8383 H       1  ZINC001596273020    0.1400
     40 H40       -10.9318   -0.0245   62.7965 H       1  ZINC001596273020    0.1000
     41 H41        -9.4870    0.6561   62.0106 H       1  ZINC001596273020    0.0700
     42 H42       -11.0924   -2.2755   61.2828 H       1  ZINC001596273020    0.0700
     43 H43       -10.3506   -0.8977   60.4345 H       1  ZINC001596273020    0.0700
     44 H44        -8.4831   -2.1831   59.7360 H       1  ZINC001596273020    0.0900
     45 H45        -8.7975   -3.4554   60.9403 H       1  ZINC001596273020    0.0700
     46 H46       -10.4409   -4.3413   59.4988 H       1  ZINC001596273020    0.3900
     47 H47       -11.1253   -5.7037   56.8060 H       1  ZINC001596273020    0.0700
     48 H48       -11.8131   -5.1741   58.3747 H       1  ZINC001596273020    0.0600
     49 H49       -14.4973   -5.2368   58.1653 H       1  ZINC001596273020    0.0500
     50 H50       -13.5282   -3.7938   58.5055 H       1  ZINC001596273020    0.0400
     51 H51       -15.7640   -3.9957   56.4513 H       1  ZINC001596273020    0.0700
     52 H52       -15.8506   -3.1728   58.0310 H       1  ZINC001596273020    0.0500
     53 H53       -15.3519   -1.4842   56.3329 H       1  ZINC001596273020    0.0600
     54 H54       -13.8700   -1.7481   57.2913 H       1  ZINC001596273020    0.0500
     55 H55       -14.5576   -2.9804   54.5946 H       1  ZINC001596273020    0.0600
     56 H56       -13.3138   -1.7610   54.9102 H       1  ZINC001596273020    0.0600
     57 H57       -11.3846   -2.0968   55.6966 H       1  ZINC001596273020    0.0700
     58 H58       -10.7218   -3.6346   55.0624 H       1  ZINC001596273020    0.0700
@<TRIPOS>BOND
     1     1     2    1
     2     1    28    1
     3     1    29    1
     4     1    30    1
     5     2     3    1
     6     2    31    1
     7     2    32    1
     8     3     4    1
     9     3     5    1
    10     3     7    1
    11     5     6    1
    12     5    33    1
    13     5    34    1
    14     6    35    1
    15     6    36    1
    16     6    37    1
    17     7     8    1
    18     7    38    1
    19     7    39    1
    20     8     9    1
    21     8    40    1
    22     8    41    1
    23     9    10    1
    24    10    11    1
    25    10    42    1
    26    10    43    1
    27    11    12    1
    28    11    44    1
    29    11    45    1
    30    12    13   am
    31    12    46    1
    32    13    14    2
    33    13    15   am
    34    15    27    1
    35    15    16    1
    36    16    17    1
    37    16    47    1
    38    16    48    1
    39    17    18    1
    40    17    23    1
    41    17    19    1
    42    19    20    1
    43    19    49    1
    44    19    50    1
    45    20    21    1
    46    20    51    1
    47    20    52    1
    48    21    22    1
    49    21    53    1
    50    21    54    1
    51    22    23    1
    52    22    55    1
    53    22    56    1
    54    23    24    1
    55    23    27    1
    56    24    25   ar
    57    24    26   ar
    58    27    57    1
    59    27    58    1
@<TRIPOS>SUBSTRUCTURE
     1 ZINC001596273020        1 TEMP              0 ****  ****    0 ROOT


##########                                Name:    ZINC000442010511
##########                DOCK_Rotatable_Bonds:                  11
##########                         Heavy_Atoms:                  31
##########                    Molecular_Weight:             422.481
##########                DOCK_Rotatable_Bonds:                  11
##########                       Formal_Charge:          -0.0200005
##########                     HBond_Acceptors:                   7
##########                        HBond_Donors:                   2
##########                         Heavy_Atoms:                  31
##########                          Grid_Score:          -41.452606
##########                     Grid_vdw_energy:          -40.977570
##########                      Grid_es_energy:           -0.475038
##########           Internal_energy_repulsive:            7.214325

@<TRIPOS>MOLECULE
ZINC000442010511
 57 59 1 0 0
SMALL
USER_CHARGES


@<TRIPOS>ATOM
      1 C1        -11.3949   -0.7870   61.0876 C.3     1  ZINC000442010511   -0.1500
      2 C2        -10.1860   -0.8835   60.1548 C.3     1  ZINC000442010511   -0.0500
      3 C3        -10.2929   -2.1347   59.3216 C.2     1  ZINC000442010511    0.0000
      4 C4         -9.7956   -3.3414   59.6472 C.2     1  ZINC000442010511   -0.2100
      5 C5        -10.1232   -4.2187   58.5879 C.2     1  ZINC000442010511   -0.1900
      6 C6        -10.8010   -3.4956   57.6785 C.2     1  ZINC000442010511   -0.0300
      7 C7        -11.3551   -4.0135   56.3763 C.3     1  ZINC000442010511    0.2400
      8 H8        -10.6765   -4.7601   55.9639 H       1  ZINC000442010511    0.1400
      9 C9        -12.7248   -4.6494   56.6218 C.3     1  ZINC000442010511    0.0500
     10 O10       -13.2560   -5.1289   55.3848 O.3     1  ZINC000442010511   -0.3800
     11 C11       -14.4992   -5.8213   55.5155 C.3     1  ZINC000442010511    0.0300
     12 N12       -11.4944   -2.9044   55.4293 N.am    1  ZINC000442010511   -0.6900
     13 C13       -11.2376   -3.0992   54.1207 C.2     1  ZINC000442010511    0.5200
     14 O14       -10.8897   -4.1932   53.7269 O.2     1  ZINC000442010511   -0.5100
     15 C15       -11.3813   -1.9692   53.1551 C.2     1  ZINC000442010511    0.5100
     16 O16       -11.3162   -2.1790   51.9613 O.2     1  ZINC000442010511   -0.5000
     17 N17       -11.5833   -0.7164   53.6091 N.am    1  ZINC000442010511   -0.6300
     18 C18       -11.7179    0.3420   52.7048 C.ar    1  ZINC000442010511    0.1200
     19 C19       -12.9004    0.5070   51.9979 C.ar    1  ZINC000442010511   -0.1000
     20 C20       -13.0308    1.5537   51.1049 C.ar    1  ZINC000442010511   -0.1300
     21 C21       -11.9855    2.4382   50.9132 C.ar    1  ZINC000442010511   -0.0900
     22 C22       -10.8037    2.2805   51.6134 C.ar    1  ZINC000442010511   -0.1700
     23 C23       -10.6664    1.2377   52.5152 C.ar    1  ZINC000442010511    0.1000
     24 O24        -9.5052    1.0812   53.2043 O.3     1  ZINC000442010511   -0.2600
     25 C25        -8.3369    1.1914   52.5193 C.ar    1  ZINC000442010511    0.0800
     26 C26        -7.5063    2.2823   52.7327 C.ar    1  ZINC000442010511   -0.1300
     27 C27        -6.3190    2.3918   52.0353 C.ar    1  ZINC000442010511   -0.1100
     28 C28        -5.9582    1.4157   51.1247 C.ar    1  ZINC000442010511   -0.0800
     29 C29        -4.6625    1.5380   50.3649 C.3     1  ZINC000442010511   -0.1200
     30 C30        -6.7837    0.3274   50.9105 C.ar    1  ZINC000442010511   -0.1100
     31 C31        -7.9697    0.2105   51.6092 C.ar    1  ZINC000442010511   -0.1100
     32 O32       -10.9058   -2.2354   58.1309 O.3     1  ZINC000442010511   -0.1600
     33 H33       -12.3091   -0.7520   60.4952 H       1  ZINC000442010511    0.0600
     34 H34       -11.4192   -1.6583   61.7420 H       1  ZINC000442010511    0.0600
     35 H35       -11.3175    0.1180   61.6901 H       1  ZINC000442010511    0.0700
     36 H36       -10.1616   -0.0122   59.5003 H       1  ZINC000442010511    0.0900
     37 H37        -9.2717   -0.9185   60.7472 H       1  ZINC000442010511    0.0800
     38 H38        -9.2503   -3.5919   60.5451 H       1  ZINC000442010511    0.1500
     39 H39        -9.8762   -5.2680   58.5215 H       1  ZINC000442010511    0.1500
     40 H40       -12.6198   -5.4808   57.3187 H       1  ZINC000442010511    0.0700
     41 H41       -13.4007   -3.9052   57.0431 H       1  ZINC000442010511    0.0700
     42 H42       -14.8353   -6.1531   54.5331 H       1  ZINC000442010511    0.0900
     43 H43       -14.3667   -6.6862   56.1655 H       1  ZINC000442010511    0.0400
     44 H44       -15.2437   -5.1527   55.9475 H       1  ZINC000442010511    0.0400
     45 H45       -11.7713   -2.0296   55.7442 H       1  ZINC000442010511    0.4200
     46 H46       -11.6353   -0.5488   54.5631 H       1  ZINC000442010511    0.4300
     47 H47       -13.7186   -0.1824   52.1452 H       1  ZINC000442010511    0.1600
     48 H48       -13.9517    1.6810   50.5550 H       1  ZINC000442010511    0.1300
     49 H49       -12.0923    3.2545   50.2142 H       1  ZINC000442010511    0.1300
     50 H50        -9.9891    2.9728   51.4605 H       1  ZINC000442010511    0.1300
     51 H51        -7.7881    3.0453   53.4433 H       1  ZINC000442010511    0.1300
     52 H52        -5.6721    3.2406   52.2010 H       1  ZINC000442010511    0.1300
     53 H53        -3.8646    1.0521   50.9266 H       1  ZINC000442010511    0.0700
     54 H54        -4.7655    1.0586   49.3914 H       1  ZINC000442010511    0.0700
     55 H55        -4.4201    2.5918   50.2272 H       1  ZINC000442010511    0.0700
     56 H56        -6.4996   -0.4335   50.1987 H       1  ZINC000442010511    0.1300
     57 H57        -8.6141   -0.6399   51.4416 H       1  ZINC000442010511    0.1300
@<TRIPOS>BOND
     1     1     2    1
     2     1    33    1
     3     1    34    1
     4     1    35    1
     5     2     3    1
     6     2    36    1
     7     2    37    1
     8     3    32    1
     9     3     4    2
    10     4     5    1
    11     4    38    1
    12     5     6    2
    13     5    39    1
    14     6     7    1
    15     6    32    1
    16     7     8    1
    17     7     9    1
    18     7    12    1
    19     9    10    1
    20     9    40    1
    21     9    41    1
    22    10    11    1
    23    11    42    1
    24    11    43    1
    25    11    44    1
    26    12    13   am
    27    12    45    1
    28    13    14    2
    29    13    15    1
    30    15    16    2
    31    15    17   am
    32    17    18    1
    33    17    46    1
    34    18    23   ar
    35    18    19   ar
    36    19    20   ar
    37    19    47    1
    38    20    21   ar
    39    20    48    1
    40    21    22   ar
    41    21    49    1
    42    22    23   ar
    43    22    50    1
    44    23    24    1
    45    24    25    1
    46    25    31   ar
    47    25    26   ar
    48    26    27   ar
    49    26    51    1
    50    27    28   ar
    51    27    52    1
    52    28    29    1
    53    28    30   ar
    54    29    53    1
    55    29    54    1
    56    29    55    1
    57    30    31   ar
    58    30    56    1
    59    31    57    1
@<TRIPOS>SUBSTRUCTURE
     1 ZINC000442010511        1 TEMP              0 ****  ****    0 ROOT


##########                                Name:    ZINC000062291520
##########                DOCK_Rotatable_Bonds:                  10
##########                         Heavy_Atoms:                  29
##########                    Molecular_Weight:             398.502
##########                DOCK_Rotatable_Bonds:                  10
##########                       Formal_Charge:          -0.0100006
##########                     HBond_Acceptors:                   6
##########                        HBond_Donors:                   1
##########                         Heavy_Atoms:                  29
##########                          Grid_Score:          -41.425537
##########                     Grid_vdw_energy:          -41.268311
##########                      Grid_es_energy:           -0.157227
##########           Internal_energy_repulsive:           15.909933

@<TRIPOS>MOLECULE
ZINC000062291520
 59 61 1 0 0
SMALL
USER_CHARGES


@<TRIPOS>ATOM
      1 C1         -4.3047    4.9071   53.2124 C.3     1  ZINC000062291520    0.0300
      2 O2         -5.1391    3.8178   52.8130 O.3     1  ZINC000062291520   -0.3100
      3 C3         -4.7052    3.0571   51.7726 C.ar    1  ZINC000062291520    0.1000
      4 C4         -3.5040    3.3533   51.1496 C.ar    1  ZINC000062291520   -0.1700
      5 C5         -3.0671    2.5821   50.0881 C.ar    1  ZINC000062291520   -0.1200
      6 C6         -3.8237    1.5116   49.6500 C.ar    1  ZINC000062291520   -0.1200
      7 C7         -5.0208    1.2068   50.2717 C.ar    1  ZINC000062291520   -0.1700
      8 C8         -5.4642    1.9753   51.3355 C.ar    1  ZINC000062291520    0.1000
      9 O9         -6.6413    1.6767   51.9479 O.3     1  ZINC000062291520   -0.3100
     10 C10        -7.3502    0.5324   51.4683 C.3     1  ZINC000062291520    0.0700
     11 C11        -8.5325    0.2399   52.3942 C.3     1  ZINC000062291520   -0.1400
     12 C12        -9.1049   -1.1149   52.0653 C.2     1  ZINC000062291520    0.5200
     13 O13        -8.4004   -1.9655   51.5644 O.2     1  ZINC000062291520   -0.5400
     14 N14       -10.3998   -1.3810   52.3279 N.am    1  ZINC000062291520   -0.7200
     15 C15       -10.9558   -2.6986   52.0099 C.3     1  ZINC000062291520    0.1600
     16 C16       -12.1251   -2.9827   52.9172 C.ar    1  ZINC000062291520   -0.1100
     17 C17       -13.4163   -2.8437   52.4444 C.ar    1  ZINC000062291520   -0.1000
     18 C18       -14.4891   -3.1048   53.2766 C.ar    1  ZINC000062291520   -0.1200
     19 C19       -14.2702   -3.5047   54.5814 C.ar    1  ZINC000062291520   -0.0900
     20 C20       -12.9785   -3.6433   55.0545 C.ar    1  ZINC000062291520   -0.0800
     21 C21       -12.7398   -4.0790   56.4772 C.3     1  ZINC000062291520    0.0900
     22 N22       -11.7591   -3.1840   57.1056 N.3     1  ZINC000062291520   -0.5300
     23 C23       -12.3467   -1.8630   57.3727 C.3     1  ZINC000062291520    0.0100
     24 C24       -11.2765   -0.9460   57.9709 C.3     1  ZINC000062291520    0.0600
     25 O25       -10.7441   -1.5507   59.1524 O.3     1  ZINC000062291520   -0.3800
     26 C26       -10.1633   -2.8383   58.9287 C.3     1  ZINC000062291520    0.0900
     27 H27        -9.3305   -2.7457   58.2316 H       1  ZINC000062291520    0.0700
     28 C28        -9.6579   -3.4083   60.2555 C.3     1  ZINC000062291520   -0.1500
     29 C29       -11.2221   -3.7745   58.3401 C.3     1  ZINC000062291520    0.0200
     30 C30       -11.9060   -3.3879   54.2208 C.ar    1  ZINC000062291520   -0.0900
     31 H31        -3.3295    4.5256   53.5152 H       1  ZINC000062291520    0.0500
     32 H32        -4.1820    5.5962   52.3769 H       1  ZINC000062291520    0.0600
     33 H33        -4.7662    5.4301   54.0500 H       1  ZINC000062291520    0.1000
     34 H34        -2.9109    4.1892   51.4898 H       1  ZINC000062291520    0.1400
     35 H35        -2.1324    2.8166   49.6005 H       1  ZINC000062291520    0.1300
     36 H36        -3.4792    0.9117   48.8208 H       1  ZINC000062291520    0.1300
     37 H37        -5.6099    0.3693   49.9279 H       1  ZINC000062291520    0.1400
     38 H38        -6.6813   -0.3281   51.4501 H       1  ZINC000062291520    0.0700
     39 H39        -7.7174    0.7284   50.4609 H       1  ZINC000062291520    0.0700
     40 H40        -9.2996    1.0018   52.2557 H       1  ZINC000062291520    0.1100
     41 H41        -8.1938    0.2494   53.4302 H       1  ZINC000062291520    0.1100
     42 H42       -10.9636   -0.7004   52.7275 H       1  ZINC000062291520    0.4000
     43 H43       -11.2895   -2.7114   50.9723 H       1  ZINC000062291520    0.0800
     44 H44       -10.1901   -3.4607   52.1547 H       1  ZINC000062291520    0.0800
     45 H45       -13.5874   -2.5316   51.4248 H       1  ZINC000062291520    0.1200
     46 H46       -15.4981   -2.9965   52.9071 H       1  ZINC000062291520    0.1300
     47 H47       -15.1082   -3.7086   55.2315 H       1  ZINC000062291520    0.1200
     48 H48       -13.6773   -4.0377   57.0319 H       1  ZINC000062291520    0.0500
     49 H49       -12.3577   -5.0998   56.4853 H       1  ZINC000062291520    0.0900
     50 H50       -12.7148   -1.4334   56.4410 H       1  ZINC000062291520    0.0900
     51 H51       -13.1723   -1.9675   58.0765 H       1  ZINC000062291520    0.0400
     52 H52       -10.4766   -0.7985   57.2453 H       1  ZINC000062291520    0.0600
     53 H53       -11.7217    0.0163   58.2234 H       1  ZINC000062291520    0.1000
     54 H54       -10.4913   -3.5021   60.9516 H       1  ZINC000062291520    0.0600
     55 H55        -9.2153   -4.3896   60.0843 H       1  ZINC000062291520    0.0700
     56 H56        -8.9069   -2.7394   60.6758 H       1  ZINC000062291520    0.0700
     57 H57       -12.0292   -3.9094   59.0602 H       1  ZINC000062291520    0.0400
     58 H58       -10.7694   -4.7400   58.1148 H       1  ZINC000062291520    0.0900
     59 H59       -10.8971   -3.5008   54.5889 H       1  ZINC000062291520    0.1200
@<TRIPOS>BOND
     1     1     2    1
     2     1    31    1
     3     1    32    1
     4     1    33    1
     5     2     3    1
     6     3     8   ar
     7     3     4   ar
     8     4     5   ar
     9     4    34    1
    10     5     6   ar
    11     5    35    1
    12     6     7   ar
    13     6    36    1
    14     7     8   ar
    15     7    37    1
    16     8     9    1
    17     9    10    1
    18    10    11    1
    19    10    38    1
    20    10    39    1
    21    11    12    1
    22    11    40    1
    23    11    41    1
    24    12    13    2
    25    12    14   am
    26    14    15    1
    27    14    42    1
    28    15    16    1
    29    15    43    1
    30    15    44    1
    31    16    30   ar
    32    16    17   ar
    33    17    18   ar
    34    17    45    1
    35    18    19   ar
    36    18    46    1
    37    19    20   ar
    38    19    47    1
    39    20    21    1
    40    20    30   ar
    41    21    22    1
    42    21    48    1
    43    21    49    1
    44    22    29    1
    45    22    23    1
    46    23    24    1
    47    23    50    1
    48    23    51    1
    49    24    25    1
    50    24    52    1
    51    24    53    1
    52    25    26    1
    53    26    27    1
    54    26    28    1
    55    26    29    1
    56    28    54    1
    57    28    55    1
    58    28    56    1
    59    29    57    1
    60    29    58    1
    61    30    59    1
@<TRIPOS>SUBSTRUCTURE
     1 ZINC000062291520        1 TEMP              0 ****  ****    0 ROOT


##########                                Name:    ZINC000045927156
##########                DOCK_Rotatable_Bonds:                   7
##########                         Heavy_Atoms:                  30
##########                    Molecular_Weight:             418.522
##########                DOCK_Rotatable_Bonds:                   7
##########                       Formal_Charge:           0.0200001
##########                     HBond_Acceptors:                   8
##########                        HBond_Donors:                   1
##########                         Heavy_Atoms:                  30
##########                          Grid_Score:          -41.355820
##########                     Grid_vdw_energy:          -39.446716
##########                      Grid_es_energy:           -1.909103
##########           Internal_energy_repulsive:           14.681940

@<TRIPOS>MOLECULE
ZINC000045927156
 52 56 1 0 0
SMALL
USER_CHARGES


@<TRIPOS>ATOM
      1 O1        -10.9540   -3.6863   54.5192 O.2     1  ZINC000045927156   -0.5800
      2 C2        -12.0120   -3.1283   54.3007 C.2     1  ZINC000045927156    0.7300
      3 N3        -12.0806   -2.1532   53.3728 N.am    1  ZINC000045927156   -0.7400
      4 C4        -10.8791   -1.7617   52.6315 C.3     1  ZINC000045927156    0.1700
      5 C5        -10.9715   -0.3045   52.2587 C.ar    1  ZINC000045927156   -0.0700
      6 C6        -12.2062    0.2743   52.0335 C.ar    1  ZINC000045927156   -0.1000
      7 C7        -12.2910    1.6112   51.6915 C.ar    1  ZINC000045927156   -0.1100
      8 C8        -11.1410    2.3690   51.5753 C.ar    1  ZINC000045927156   -0.1100
      9 C9         -9.9059    1.7903   51.8015 C.ar    1  ZINC000045927156   -0.1000
     10 C10        -9.8214    0.4549   52.1475 C.ar    1  ZINC000045927156   -0.1000
     11 C11        -8.4752   -0.1760   52.3942 C.3     1  ZINC000045927156    0.1700
     12 N12        -7.4583    0.5169   51.5992 N.pl3   1  ZINC000045927156   -0.3800
     13 C13        -6.7218    1.5755   51.9791 C.2     1  ZINC000045927156    0.2500
     14 N14        -5.9305    1.8962   50.9878 N.2     1  ZINC000045927156   -0.5400
     15 C15        -6.1319    1.0691   49.9628 C.2     1  ZINC000045927156    0.2000
     16 N16        -7.0546    0.2033   50.2910 N.2     1  ZINC000045927156   -0.3100
     17 N17       -13.1173   -3.4885   54.9827 N.am    1  ZINC000045927156   -0.6200
     18 C18       -14.4593   -2.9016   54.8157 C.3     1  ZINC000045927156    0.1000
     19 C19       -15.4363   -4.0008   55.3026 C.3     1  ZINC000045927156   -0.1300
     20 C20       -14.6500   -4.6112   56.4928 C.3     1  ZINC000045927156   -0.1200
     21 C21       -13.1857   -4.5362   56.0119 C.3     1  ZINC000045927156    0.2300
     22 H22       -12.8839   -5.4956   55.5918 H       1  ZINC000045927156    0.1000
     23 C23       -12.2852   -4.1759   57.1653 C.2     1  ZINC000045927156    0.0900
     24 N24       -12.3744   -3.0902   57.8360 N.2     1  ZINC000045927156   -0.4500
     25 C25       -11.5014   -2.8998   58.8437 C.ar    1  ZINC000045927156    0.0800
     26 C26       -11.3748   -1.8128   59.7315 C.ar    1  ZINC000045927156   -0.0700
     27 C27       -10.4107   -1.8167   60.6937 C.ar    1  ZINC000045927156   -0.1100
     28 C28        -9.5372   -2.8875   60.8192 C.ar    1  ZINC000045927156   -0.1000
     29 C29        -9.6374   -3.9633   59.9657 C.ar    1  ZINC000045927156   -0.0700
     30 C30       -10.6172   -3.9766   58.9756 C.ar    1  ZINC000045927156   -0.1800
     31 S31       -11.0238   -5.1683   57.7448 S.3     1  ZINC000045927156    0.1200
     32 H32       -12.9255   -1.7108   53.1957 H       1  ZINC000045927156    0.3900
     33 H33        -9.9994   -1.9224   53.2545 H       1  ZINC000045927156    0.1000
     34 H34       -10.7983   -2.3638   51.7265 H       1  ZINC000045927156    0.0700
     35 H35       -13.1049   -0.3179   52.1243 H       1  ZINC000045927156    0.1300
     36 H36       -13.2557    2.0633   51.5148 H       1  ZINC000045927156    0.1300
     37 H37       -11.2071    3.4132   51.3075 H       1  ZINC000045927156    0.1300
     38 H38        -9.0073    2.3823   51.7103 H       1  ZINC000045927156    0.1300
     39 H39        -8.2253   -0.0970   53.4521 H       1  ZINC000045927156    0.1100
     40 H40        -8.5081   -1.2266   52.1060 H       1  ZINC000045927156    0.1000
     41 H41        -6.7747    2.0744   52.9353 H       1  ZINC000045927156    0.2200
     42 H42        -5.6137    1.1053   49.0160 H       1  ZINC000045927156    0.2200
     43 H43       -14.5605   -2.0057   55.4282 H       1  ZINC000045927156    0.0700
     44 H44       -14.6434   -2.6681   53.7670 H       1  ZINC000045927156    0.0800
     45 H45       -16.3777   -3.5660   55.6382 H       1  ZINC000045927156    0.0900
     46 H46       -15.6067   -4.7447   54.5244 H       1  ZINC000045927156    0.0800
     47 H47       -14.7943   -4.0174   57.3954 H       1  ZINC000045927156    0.0900
     48 H48       -14.9461   -5.6468   56.6599 H       1  ZINC000045927156    0.0900
     49 H49       -12.0463   -0.9709   59.6483 H       1  ZINC000045927156    0.1300
     50 H50       -10.3249   -0.9765   61.3668 H       1  ZINC000045927156    0.1400
     51 H51        -8.7776   -2.8768   61.5869 H       1  ZINC000045927156    0.1400
     52 H52        -8.9567   -4.7959   60.0635 H       1  ZINC000045927156    0.1300
@<TRIPOS>BOND
     1     1     2    2
     2     2     3   am
     3     2    17   am
     4     3     4    1
     5     3    32    1
     6     4     5    1
     7     4    33    1
     8     4    34    1
     9     5    10   ar
    10     5     6   ar
    11     6     7   ar
    12     6    35    1
    13     7     8   ar
    14     7    36    1
    15     8     9   ar
    16     8    37    1
    17     9    10   ar
    18     9    38    1
    19    10    11    1
    20    11    12    1
    21    11    39    1
    22    11    40    1
    23    12    16    1
    24    12    13    1
    25    13    14    2
    26    13    41    1
    27    14    15    1
    28    15    16    2
    29    15    42    1
    30    17    21    1
    31    17    18    1
    32    18    19    1
    33    18    43    1
    34    18    44    1
    35    19    20    1
    36    19    45    1
    37    19    46    1
    38    20    21    1
    39    20    47    1
    40    20    48    1
    41    21    22    1
    42    21    23    1
    43    23    31    1
    44    23    24    2
    45    24    25    1
    46    25    30   ar
    47    25    26   ar
    48    26    27   ar
    49    26    49    1
    50    27    28   ar
    51    27    50    1
    52    28    29   ar
    53    28    51    1
    54    29    30   ar
    55    29    52    1
    56    30    31    1
@<TRIPOS>SUBSTRUCTURE
     1 ZINC000045927156        1 TEMP              0 ****  ****    0 ROOT


##########                                Name:    ZINC000599797189
##########                DOCK_Rotatable_Bonds:                  13
##########                         Heavy_Atoms:                  23
##########                    Molecular_Weight:             329.313
##########                DOCK_Rotatable_Bonds:                  13
##########                       Formal_Charge:          0.00999949
##########                     HBond_Acceptors:                  11
##########                        HBond_Donors:                   3
##########                         Heavy_Atoms:                  23
##########                          Grid_Score:          -41.317577
##########                     Grid_vdw_energy:          -33.093117
##########                      Grid_es_energy:           -8.224462
##########           Internal_energy_repulsive:           12.671574

@<TRIPOS>MOLECULE
ZINC000599797189
 42 42 1 0 0
SMALL
USER_CHARGES


@<TRIPOS>ATOM
      1 C1        -16.1059   -2.7641   59.0580 C.3     1  ZINC000599797189   -0.1500
      2 C2        -14.9159   -3.7056   58.8615 C.3     1  ZINC000599797189    0.0600
      3 O3        -14.0302   -3.1611   57.8479 O.3     1  ZINC000599797189   -0.3600
      4 C4        -13.0468   -3.9602   57.4051 C.2     1  ZINC000599797189    0.4500
      5 O5        -13.2477   -5.1429   57.2621 O.2     1  ZINC000599797189   -0.4800
      6 C6        -11.6921   -3.3820   57.0865 C.3     1  ZINC000599797189    0.1500
      7 N7        -10.8224   -3.5005   58.2595 N.pl3   1  ZINC000599797189   -0.3800
      8 C8        -10.2587   -4.6248   58.7324 C.2     1  ZINC000599797189    0.2800
      9 N9         -9.5550   -4.3150   59.7914 N.2     1  ZINC000599797189   -0.5100
     10 C10        -9.6450   -3.0026   60.0261 C.2     1  ZINC000599797189    0.4700
     11 N11        -9.0225   -2.3184   61.0754 N.am    1  ZINC000599797189   -0.6400
     12 C12        -9.7594   -1.5832   61.9316 C.2     1  ZINC000599797189    0.7100
     13 O13       -10.9650   -1.5133   61.7910 O.2     1  ZINC000599797189   -0.5300
     14 N14        -9.1597   -0.9254   62.9436 N.am    1  ZINC000599797189   -0.7300
     15 C15        -9.9608   -0.1277   63.8753 C.3     1  ZINC000599797189    0.1100
     16 C16        -9.2034    0.0278   65.1955 C.3     1  ZINC000599797189    0.1100
     17 H17        -9.8813    0.4049   65.9611 H       1  ZINC000599797189    0.1200
     18 O18        -8.6864   -1.2415   65.6003 O.3     1  ZINC000599797189   -0.5400
     19 C19        -8.0477    1.0127   65.0076 C.3     1  ZINC000599797189   -0.1500
     20 C20        -7.3218    1.1910   66.3160 C.2     1  ZINC000599797189    0.4600
     21 O21        -7.9141    1.0496   67.3596 O.2     1  ZINC000599797189   -0.4900
     22 O22        -6.0173    1.5069   66.3222 O.3     1  ZINC000599797189   -0.3600
     23 C23        -5.3775    1.6906   65.0317 C.3     1  ZINC000599797189    0.0400
     24 N24       -10.4088   -2.4605   59.1078 N.2     1  ZINC000599797189   -0.3200
     25 H25       -16.7708   -3.1728   59.8189 H       1  ZINC000599797189    0.0800
     26 H26       -15.7464   -1.7859   59.3770 H       1  ZINC000599797189    0.0700
     27 H27       -16.6483   -2.6630   58.1179 H       1  ZINC000599797189    0.0700
     28 H28       -14.3736   -3.8067   59.8016 H       1  ZINC000599797189    0.0700
     29 H29       -15.2755   -4.6838   58.5424 H       1  ZINC000599797189    0.0700
     30 H30       -11.2519   -3.9267   56.2513 H       1  ZINC000599797189    0.1500
     31 H31       -11.7995   -2.3309   56.8186 H       1  ZINC000599797189    0.1300
     32 H32       -10.3676   -5.6134   58.3114 H       1  ZINC000599797189    0.2300
     33 H33        -8.0605   -2.3732   61.1870 H       1  ZINC000599797189    0.4200
     34 H34        -8.1976   -0.9802   63.0551 H       1  ZINC000599797189    0.4000
     35 H35       -10.1462    0.8563   63.4446 H       1  ZINC000599797189    0.0800
     36 H36       -10.9112   -0.6289   64.0586 H       1  ZINC000599797189    0.0800
     37 H37        -8.0421   -1.6180   64.9853 H       1  ZINC000599797189    0.3800
     38 H38        -7.3572    0.6242   64.2590 H       1  ZINC000599797189    0.1200
     39 H39        -8.4400    1.9741   64.6758 H       1  ZINC000599797189    0.1200
     40 H40        -5.4529    0.7692   64.4542 H       1  ZINC000599797189    0.0600
     41 H41        -5.8719    2.4988   64.4927 H       1  ZINC000599797189    0.0600
     42 H42        -4.3271    1.9418   65.1794 H       1  ZINC000599797189    0.1000
@<TRIPOS>BOND
     1     1     2    1
     2     1    25    1
     3     1    26    1
     4     1    27    1
     5     2     3    1
     6     2    28    1
     7     2    29    1
     8     3     4    1
     9     4     5    2
    10     4     6    1
    11     6     7    1
    12     6    30    1
    13     6    31    1
    14     7    24    1
    15     7     8    1
    16     8     9    2
    17     8    32    1
    18     9    10    1
    19    10    11    1
    20    10    24    2
    21    11    12   am
    22    11    33    1
    23    12    13    2
    24    12    14   am
    25    14    15    1
    26    14    34    1
    27    15    16    1
    28    15    35    1
    29    15    36    1
    30    16    17    1
    31    16    18    1
    32    16    19    1
    33    18    37    1
    34    19    20    1
    35    19    38    1
    36    19    39    1
    37    20    21    2
    38    20    22    1
    39    22    23    1
    40    23    40    1
    41    23    41    1
    42    23    42    1
@<TRIPOS>SUBSTRUCTURE
     1 ZINC000599797189        1 TEMP              0 ****  ****    0 ROOT


##########                                Name:    ZINC001039825450
##########                DOCK_Rotatable_Bonds:                   8
##########                         Heavy_Atoms:                  24
##########                    Molecular_Weight:             337.339
##########                DOCK_Rotatable_Bonds:                   8
##########                       Formal_Charge:           0.0100001
##########                     HBond_Acceptors:                  11
##########                        HBond_Donors:                   4
##########                         Heavy_Atoms:                  24
##########                          Grid_Score:          -41.019363
##########                     Grid_vdw_energy:          -38.322708
##########                      Grid_es_energy:           -2.696655
##########           Internal_energy_repulsive:            7.881219

@<TRIPOS>MOLECULE
ZINC001039825450
 43 45 1 0 0
SMALL
USER_CHARGES


@<TRIPOS>ATOM
      1 O1        -11.3305   -0.3763   63.6298 O.2     1  ZINC001039825450   -0.5100
      2 C2        -10.2066   -0.2258   63.1993 C.2     1  ZINC001039825450    0.5000
      3 C3         -9.1803    0.5166   64.0157 C.3     1  ZINC001039825450    0.1300
      4 N4         -9.3960    0.2417   65.4384 N.pl3   1  ZINC001039825450   -0.1500
      5 N5         -8.6506   -0.5218   66.1562 N.2     1  ZINC001039825450   -0.2800
      6 C6         -9.1267   -0.5458   67.3805 C.2     1  ZINC001039825450   -0.0200
      7 C7        -10.2524    0.2809   67.3695 C.2     1  ZINC001039825450   -0.0200
      8 N8        -10.3533    0.7353   66.1410 N.2     1  ZINC001039825450   -0.2800
      9 N9         -9.8740   -0.7273   61.9934 N.am    1  ZINC001039825450   -0.7300
     10 C10       -10.8718   -1.4490   61.1998 C.3     1  ZINC001039825450    0.1000
     11 C11       -10.1697   -2.2352   60.0908 C.3     1  ZINC001039825450    0.1100
     12 O12        -9.1330   -1.4515   59.4965 O.3     1  ZINC001039825450   -0.5400
     13 C13        -9.6064   -3.5732   60.6385 C.3     1  ZINC001039825450   -0.1600
     14 C14        -9.5886   -4.4493   59.3610 C.3     1  ZINC001039825450    0.1000
     15 N15       -10.8009   -4.0586   58.6185 N.am    1  ZINC001039825450   -0.6100
     16 C16       -11.4507   -4.8223   57.7181 C.2     1  ZINC001039825450    0.5200
     17 O17       -11.0441   -5.9357   57.4613 O.2     1  ZINC001039825450   -0.5100
     18 C18       -12.6825   -4.2927   57.0301 C.3     1  ZINC001039825450    0.1100
     19 H19       -13.2382   -3.6333   57.6967 H       1  ZINC001039825450    0.1200
     20 C20       -13.5751   -5.4535   56.5498 C.3     1  ZINC001039825450    0.1100
     21 N21       -13.6203   -5.2825   55.0899 N.am    1  ZINC001039825450   -0.7400
     22 C22       -12.8887   -4.2135   54.7492 C.2     1  ZINC001039825450    0.7100
     23 O23       -12.7535   -3.8417   53.5995 O.2     1  ZINC001039825450   -0.5800
     24 N24       -12.3193   -3.5877   55.7917 N.am    1  ZINC001039825450   -0.7200
     25 C25       -11.1839   -2.6982   59.0237 C.3     1  ZINC001039825450    0.1200
     26 H26        -8.1812    0.1877   63.7296 H       1  ZINC001039825450    0.1400
     27 H27        -9.2764    1.5870   63.8339 H       1  ZINC001039825450    0.1400
     28 H28        -8.7293   -1.0930   68.2226 H       1  ZINC001039825450    0.2000
     29 H29       -10.9039    0.5042   68.2015 H       1  ZINC001039825450    0.2000
     30 H30        -8.9740   -0.6103   61.6510 H       1  ZINC001039825450    0.4000
     31 H31       -11.4187   -2.1381   61.8433 H       1  ZINC001039825450    0.0900
     32 H32       -11.5673   -0.7369   60.7558 H       1  ZINC001039825450    0.0900
     33 H33        -8.8623   -0.6899   60.0274 H       1  ZINC001039825450    0.3800
     34 H34        -8.6000   -3.4401   61.0350 H       1  ZINC001039825450    0.0900
     35 H35       -10.2693   -3.9963   61.3932 H       1  ZINC001039825450    0.0900
     36 H36        -8.6975   -4.2395   58.7696 H       1  ZINC001039825450    0.0800
     37 H37        -9.6297   -5.5060   59.6252 H       1  ZINC001039825450    0.0800
     38 H38       -13.1273   -6.4130   56.8089 H       1  ZINC001039825450    0.0900
     39 H39       -14.5747   -5.3691   56.9760 H       1  ZINC001039825450    0.1000
     40 H40       -14.1032   -5.8532   54.4719 H       1  ZINC001039825450    0.4400
     41 H41       -11.7575   -2.7990   55.7353 H       1  ZINC001039825450    0.4400
     42 H42       -12.1887   -2.7063   59.4461 H       1  ZINC001039825450    0.0900
     43 H43       -11.1469   -2.0307   58.1627 H       1  ZINC001039825450    0.0900
@<TRIPOS>BOND
     1     1     2    2
     2     2     3    1
     3     2     9   am
     4     3     4    1
     5     3    26    1
     6     3    27    1
     7     4     8    1
     8     4     5    1
     9     5     6    2
    10     6     7    1
    11     6    28    1
    12     7     8    2
    13     7    29    1
    14     9    10    1
    15     9    30    1
    16    10    11    1
    17    10    31    1
    18    10    32    1
    19    11    25    1
    20    11    12    1
    21    11    13    1
    22    12    33    1
    23    13    14    1
    24    13    34    1
    25    13    35    1
    26    14    15    1
    27    14    36    1
    28    14    37    1
    29    15    16   am
    30    15    25    1
    31    16    17    2
    32    16    18    1
    33    18    19    1
    34    18    24    1
    35    18    20    1
    36    20    21    1
    37    20    38    1
    38    20    39    1
    39    21    22   am
    40    21    40    1
    41    22    23    2
    42    22    24   am
    43    24    41    1
    44    25    42    1
    45    25    43    1
@<TRIPOS>SUBSTRUCTURE
     1 ZINC001039825450        1 TEMP              0 ****  ****    0 ROOT


##########                                Name:    ZINC000428266315
##########                DOCK_Rotatable_Bonds:                  10
##########                         Heavy_Atoms:                  30
##########                    Molecular_Weight:             423.438
##########                DOCK_Rotatable_Bonds:                  10
##########                       Formal_Charge:          0.00999977
##########                     HBond_Acceptors:                  10
##########                        HBond_Donors:                   0
##########                         Heavy_Atoms:                  30
##########                          Grid_Score:          -40.567532
##########                     Grid_vdw_energy:          -40.715836
##########                      Grid_es_energy:            0.148304
##########           Internal_energy_repulsive:            9.359091

@<TRIPOS>MOLECULE
ZINC000428266315
 54 56 1 0 0
SMALL
USER_CHARGES


@<TRIPOS>ATOM
      1 C1         -4.2391    2.7718   51.8365 C.3     1  ZINC000428266315   -0.1500
      2 C2         -5.7400    2.8745   52.1152 C.3     1  ZINC000428266315    0.0600
      3 O3         -6.3704    1.6333   51.7923 O.3     1  ZINC000428266315   -0.3700
      4 C4         -7.7717    1.6033   52.0707 C.3     1  ZINC000428266315    0.1800
      5 H5         -7.9482    1.9600   53.0854 H       1  ZINC000428266315    0.0900
      6 C6         -8.5082    2.5049   51.0779 C.3     1  ZINC000428266315   -0.1700
      7 C7         -8.2799    0.1908   51.9391 C.2     1  ZINC000428266315    0.1700
      8 N8         -7.7367   -0.7600   51.2395 N.2     1  ZINC000428266315   -0.3500
      9 O9         -8.3862   -1.7793   51.3405 O.3     1  ZINC000428266315    0.0800
     10 C10        -9.4374   -1.5694   52.1386 C.2     1  ZINC000428266315    0.1900
     11 C11       -10.4894   -2.5783   52.5214 C.3     1  ZINC000428266315    0.1500
     12 N12       -11.7034   -1.8774   52.9605 N.3     1  ZINC000428266315   -0.5300
     13 C13       -12.5486   -1.5194   51.8136 C.3     1  ZINC000428266315    0.0200
     14 C14       -12.4520   -2.6816   53.9355 C.3     1  ZINC000428266315    0.1400
     15 C15       -11.7774   -2.5964   55.2804 C.2     1  ZINC000428266315   -0.2300
     16 C16       -11.7277   -3.5788   56.2097 C.2     1  ZINC000428266315    0.0800
     17 N17       -11.0356   -3.1087   57.2686 N.pl3   1  ZINC000428266315   -0.3700
     18 C18       -10.7418   -3.8436   58.5014 C.3     1  ZINC000428266315    0.1700
     19 C19       -10.7027   -2.8828   59.6617 C.ar    1  ZINC000428266315   -0.0800
     20 C20       -11.8214   -2.1349   59.9779 C.ar    1  ZINC000428266315   -0.1000
     21 C21       -11.7854   -1.2535   61.0422 C.ar    1  ZINC000428266315   -0.0700
     22 C22       -10.6309   -1.1204   61.7907 C.ar    1  ZINC000428266315   -0.1700
     23 C23       -10.5916   -0.1593   62.9507 C.3     1  ZINC000428266315    0.5100
     24 F24        -9.6622   -0.6068   63.8959 F       1  ZINC000428266315   -0.1700
     25 F25       -10.2175    1.1088   62.4932 F       1  ZINC000428266315   -0.1800
     26 F26       -11.8583   -0.0875   63.5401 F       1  ZINC000428266315   -0.1800
     27 C27        -9.5126   -1.8694   61.4754 C.ar    1  ZINC000428266315   -0.0700
     28 C28        -9.5498   -2.7535   60.4134 C.ar    1  ZINC000428266315   -0.0800
     29 N29       -10.6472   -1.7939   56.9804 N.2     1  ZINC000428266315   -0.2900
     30 C30       -11.0871   -1.4901   55.7863 C.2     1  ZINC000428266315    0.0600
     31 N31        -9.3759   -0.3190   52.5289 N.2     1  ZINC000428266315   -0.4600
     32 H32        -3.7582    3.7186   52.0828 H       1  ZINC000428266315    0.0700
     33 H33        -3.8099    1.9769   52.4463 H       1  ZINC000428266315    0.0600
     34 H34        -4.0799    2.5470   50.7819 H       1  ZINC000428266315    0.0600
     35 H35        -5.8992    3.0993   53.1698 H       1  ZINC000428266315    0.0500
     36 H36        -6.1692    3.6695   51.5054 H       1  ZINC000428266315    0.0500
     37 H37        -8.3316    2.1484   50.0632 H       1  ZINC000428266315    0.0700
     38 H38        -9.5770    2.4821   51.2902 H       1  ZINC000428266315    0.0700
     39 H39        -8.1406    3.5267   51.1731 H       1  ZINC000428266315    0.0700
     40 H40       -10.7228   -3.2045   51.6602 H       1  ZINC000428266315    0.0800
     41 H41       -10.1161   -3.2021   53.3336 H       1  ZINC000428266315    0.1200
     42 H42       -12.8409   -2.4246   51.2811 H       1  ZINC000428266315    0.0400
     43 H43       -13.4404   -1.0019   52.1669 H       1  ZINC000428266315    0.0800
     44 H44       -11.9917   -0.8665   51.1417 H       1  ZINC000428266315    0.0600
     45 H45       -13.4703   -2.3010   54.0150 H       1  ZINC000428266315    0.0500
     46 H46       -12.4770   -3.7206   53.6067 H       1  ZINC000428266315    0.0900
     47 H47       -12.1638   -4.5628   56.1202 H       1  ZINC000428266315    0.1700
     48 H48       -11.5177   -4.5896   58.6733 H       1  ZINC000428266315    0.1000
     49 H49        -9.7756   -4.3392   58.4074 H       1  ZINC000428266315    0.1100
     50 H50       -12.7234   -2.2388   59.3931 H       1  ZINC000428266315    0.1300
     51 H51       -12.6593   -0.6687   61.2889 H       1  ZINC000428266315    0.1400
     52 H52        -8.6107   -1.7656   62.0604 H       1  ZINC000428266315    0.1400
     53 H53        -8.6761   -3.3387   60.1670 H       1  ZINC000428266315    0.1400
     54 H54       -10.9481   -0.5455   55.2815 H       1  ZINC000428266315    0.1800
@<TRIPOS>BOND
     1     1     2    1
     2     1    32    1
     3     1    33    1
     4     1    34    1
     5     2     3    1
     6     2    35    1
     7     2    36    1
     8     3     4    1
     9     4     5    1
    10     4     6    1
    11     4     7    1
    12     6    37    1
    13     6    38    1
    14     6    39    1
    15     7    31    1
    16     7     8    2
    17     8     9    1
    18     9    10    1
    19    10    11    1
    20    10    31    2
    21    11    12    1
    22    11    40    1
    23    11    41    1
    24    12    13    1
    25    12    14    1
    26    13    42    1
    27    13    43    1
    28    13    44    1
    29    14    15    1
    30    14    45    1
    31    14    46    1
    32    15    30    1
    33    15    16    2
    34    16    17    1
    35    16    47    1
    36    17    18    1
    37    17    29    1
    38    18    19    1
    39    18    48    1
    40    18    49    1
    41    19    28   ar
    42    19    20   ar
    43    20    21   ar
    44    20    50    1
    45    21    22   ar
    46    21    51    1
    47    22    23    1
    48    22    27   ar
    49    23    24    1
    50    23    25    1
    51    23    26    1
    52    27    28   ar
    53    27    52    1
    54    28    53    1
    55    29    30    2
    56    30    54    1
@<TRIPOS>SUBSTRUCTURE
     1 ZINC000428266315        1 TEMP              0 ****  ****    0 ROOT


##########                                Name:    ZINC000467185792
##########                DOCK_Rotatable_Bonds:                   9
##########                         Heavy_Atoms:                  29
##########                    Molecular_Weight:             412.513
##########                DOCK_Rotatable_Bonds:                   9
##########                       Formal_Charge:                0.04
##########                     HBond_Acceptors:                   8
##########                        HBond_Donors:                   2
##########                         Heavy_Atoms:                  29
##########                          Grid_Score:          -40.125954
##########                     Grid_vdw_energy:          -38.369518
##########                      Grid_es_energy:           -1.756435
##########           Internal_energy_repulsive:           21.452438

@<TRIPOS>MOLECULE
ZINC000467185792
 53 55 1 0 0
SMALL
USER_CHARGES


@<TRIPOS>ATOM
      1 C1        -15.1061    0.4760   48.2467 C.3     1  ZINC000467185792   -0.1500
      2 C2        -15.2681   -1.0049   47.8981 C.3     1  ZINC000467185792   -0.1200
      3 C3        -15.2339   -1.8375   49.1814 C.3     1  ZINC000467185792    0.0600
      4 O4        -13.9863   -1.6343   49.8478 O.3     1  ZINC000467185792   -0.3100
      5 C5        -13.8315   -2.2258   51.0617 C.ar    1  ZINC000467185792    0.1400
      6 C6        -12.5767   -2.2747   51.6532 C.ar    1  ZINC000467185792   -0.2100
      7 C7        -12.4164   -2.8738   52.8852 C.ar    1  ZINC000467185792   -0.0400
      8 C8        -13.5161   -3.4305   53.5363 C.ar    1  ZINC000467185792   -0.0600
      9 C9        -13.3473   -4.0752   54.8616 C.2     1  ZINC000467185792    0.1400
     10 C10       -13.6888   -5.3565   55.0863 C.2     1  ZINC000467185792   -0.3000
     11 S11       -13.3340   -5.7340   56.7706 S.3     1  ZINC000467185792    0.2000
     12 C12       -12.7464   -4.0919   57.0153 C.2     1  ZINC000467185792    0.2800
     13 N13       -12.2507   -3.5867   58.2095 N.am    1  ZINC000467185792   -0.6100
     14 C14       -11.0882   -2.9046   58.2218 C.2     1  ZINC000467185792    0.5900
     15 O15       -10.4736   -2.7319   57.1867 O.2     1  ZINC000467185792   -0.4900
     16 C16       -10.5621   -2.3684   59.4895 C.2     1  ZINC000467185792   -0.2400
     17 C17       -10.9144   -1.0975   59.9396 C.2     1  ZINC000467185792    0.0800
     18 C18       -11.8495   -0.2240   59.1436 C.3     1  ZINC000467185792   -0.1200
     19 C19       -11.0568    0.5291   58.0733 C.3     1  ZINC000467185792   -0.1400
     20 C20       -10.3741   -0.6566   61.1538 C.2     1  ZINC000467185792    0.0600
     21 C21       -10.7301    0.7114   61.6765 C.3     1  ZINC000467185792   -0.0600
     22 C22       -10.0632    0.9270   63.0366 C.3     1  ZINC000467185792   -0.1500
     23 N23        -9.5653   -1.4198   61.8372 N.2     1  ZINC000467185792   -0.1800
     24 N24        -9.2206   -2.5937   61.4521 N.am    1  ZINC000467185792   -0.4300
     25 C25        -9.6787   -3.1305   60.3051 C.2     1  ZINC000467185792    0.5000
     26 O26        -9.3334   -4.2489   59.9646 O.2     1  ZINC000467185792   -0.5300
     27 N27       -12.8442   -3.4298   55.9043 N.2     1  ZINC000467185792   -0.5000
     28 C28       -14.7748   -3.3798   52.9395 C.ar    1  ZINC000467185792   -0.0600
     29 C29       -14.9295   -2.7746   51.7097 C.ar    1  ZINC000467185792   -0.1500
     30 H30       -14.1529    0.6279   48.7531 H       1  ZINC000467185792    0.0600
     31 H31       -15.1303    1.0692   47.3326 H       1  ZINC000467185792    0.0700
     32 H32       -15.9194    0.7861   48.9028 H       1  ZINC000467185792    0.0600
     33 H33       -16.2213   -1.1568   47.3918 H       1  ZINC000467185792    0.0700
     34 H34       -14.4547   -1.3148   47.2421 H       1  ZINC000467185792    0.0700
     35 H35       -16.0497   -1.5302   49.8358 H       1  ZINC000467185792    0.0600
     36 H36       -15.3453   -2.8929   48.9328 H       1  ZINC000467185792    0.0600
     37 H37       -11.7251   -1.8435   51.1482 H       1  ZINC000467185792    0.1300
     38 H38       -11.4397   -2.9118   53.3449 H       1  ZINC000467185792    0.1300
     39 H39       -14.1084   -6.0367   54.3599 H       1  ZINC000467185792    0.1800
     40 H40       -12.7409   -3.7244   59.0351 H       1  ZINC000467185792    0.4400
     41 H41       -12.6073   -0.8444   58.6651 H       1  ZINC000467185792    0.0900
     42 H42       -12.3327    0.4917   59.8087 H       1  ZINC000467185792    0.1300
     43 H43       -10.2990    1.1496   58.5518 H       1  ZINC000467185792    0.0600
     44 H44       -10.5735   -0.1866   57.4082 H       1  ZINC000467185792    0.0600
     45 H45       -11.7331    1.1609   57.4976 H       1  ZINC000467185792    0.0700
     46 H46       -10.3809    1.4701   60.9762 H       1  ZINC000467185792    0.1000
     47 H47       -11.8118    0.7883   61.7860 H       1  ZINC000467185792    0.1000
     48 H48       -10.3207    1.9164   63.4146 H       1  ZINC000467185792    0.0600
     49 H49       -10.4124    0.1683   63.7368 H       1  ZINC000467185792    0.0600
     50 H50        -8.9815    0.8501   62.9270 H       1  ZINC000467185792    0.0600
     51 H51        -8.6154   -3.1118   62.0056 H       1  ZINC000467185792    0.4500
     52 H52       -15.6287   -3.8106   53.4412 H       1  ZINC000467185792    0.1300
     53 H53       -15.9045   -2.7347   51.2471 H       1  ZINC000467185792    0.1400
@<TRIPOS>BOND
     1     1     2    1
     2     1    30    1
     3     1    31    1
     4     1    32    1
     5     2     3    1
     6     2    33    1
     7     2    34    1
     8     3     4    1
     9     3    35    1
    10     3    36    1
    11     4     5    1
    12     5    29   ar
    13     5     6   ar
    14     6     7   ar
    15     6    37    1
    16     7     8   ar
    17     7    38    1
    18     8     9    1
    19     8    28   ar
    20     9    27    1
    21     9    10    2
    22    10    11    1
    23    10    39    1
    24    11    12    1
    25    12    13    1
    26    12    27    2
    27    13    14   am
    28    13    40    1
    29    14    15    2
    30    14    16    1
    31    16    25    1
    32    16    17    2
    33    17    18    1
    34    17    20    1
    35    18    19    1
    36    18    41    1
    37    18    42    1
    38    19    43    1
    39    19    44    1
    40    19    45    1
    41    20    21    1
    42    20    23    2
    43    21    22    1
    44    21    46    1
    45    21    47    1
    46    22    48    1
    47    22    49    1
    48    22    50    1
    49    23    24    1
    50    24    25   am
    51    24    51    1
    52    25    26    2
    53    28    29   ar
    54    28    52    1
    55    29    53    1
@<TRIPOS>SUBSTRUCTURE
     1 ZINC000467185792        1 TEMP              0 ****  ****    0 ROOT


##########                                Name:    ZINC000058174787
##########                DOCK_Rotatable_Bonds:                   9
##########                         Heavy_Atoms:                  27
##########                    Molecular_Weight:             413.882
##########                DOCK_Rotatable_Bonds:                   9
##########                       Formal_Charge:           0.0200002
##########                     HBond_Acceptors:                  10
##########                        HBond_Donors:                   1
##########                         Heavy_Atoms:                  27
##########                          Grid_Score:          -39.983871
##########                     Grid_vdw_energy:          -39.268059
##########                      Grid_es_energy:           -0.715812
##########           Internal_energy_repulsive:            6.199575

@<TRIPOS>MOLECULE
ZINC000058174787
 47 48 1 0 0
SMALL
USER_CHARGES


@<TRIPOS>ATOM
      1 C1        -10.8696   -0.2018   54.7908 C.3     1  ZINC000058174787   -0.0700
      2 C2         -9.6982    0.3834   54.0447 C.2     1  ZINC000058174787    0.2100
      3 N3         -9.3395    0.0739   52.8288 N.2     1  ZINC000058174787   -0.4200
      4 C4         -8.2566    0.7898   52.4914 C.2     1  ZINC000058174787   -0.5600
      5 S5         -7.4076    0.7185   50.9490 S.o2    1  ZINC000058174787    2.7400
      6 O6         -7.4242   -0.6436   50.5444 O.2     1  ZINC000058174787   -0.9500
      7 O7         -7.9322    1.7722   50.1531 O.2     1  ZINC000058174787   -0.9600
      8 N8         -5.8230    1.0994   51.2437 N.am    1  ZINC000058174787   -1.1100
      9 C9         -4.8584    1.1237   50.1414 C.3     1  ZINC000058174787    0.1300
     10 C10        -3.7309    2.1038   50.4720 C.3     1  ZINC000058174787   -0.1200
     11 C11        -2.8831    2.3262   49.2462 C.2     1  ZINC000058174787    0.4700
     12 O12        -2.2244    3.3337   49.1419 O.2     1  ZINC000058174787   -0.5000
     13 O13        -2.8596    1.4049   48.2702 O.3     1  ZINC000058174787   -0.3300
     14 C14        -2.0207    1.6857   47.1188 C.3     1  ZINC000058174787    0.0400
     15 H15        -1.1237    2.2133   47.4428 H       1  ZINC000058174787    0.1200
     16 C16        -2.7931    2.5556   46.1250 C.3     1  ZINC000058174787   -0.1700
     17 C17        -1.6295    0.3907   46.4546 C.2     1  ZINC000058174787    0.4000
     18 O18        -1.8879   -0.6669   46.9887 O.2     1  ZINC000058174787   -0.4200
     19 C19        -0.9342    0.4096   45.1585 C.ar    1  ZINC000058174787   -0.1600
     20 C20        -1.4361   -0.3282   44.0810 C.ar    1  ZINC000058174787   -0.0600
     21 C21        -0.7797   -0.3055   42.8695 C.ar    1  ZINC000058174787   -0.1200
     22 C22         0.3747    0.4458   42.7170 C.ar    1  ZINC000058174787    0.0000
     23 Cl23        1.1944    0.4690   41.1871 Cl      1  ZINC000058174787   -0.0500
     24 C24         0.8774    1.1790   43.7799 C.ar    1  ZINC000058174787   -0.1200
     25 C25         0.2287    1.1700   44.9958 C.ar    1  ZINC000058174787   -0.0400
     26 C26        -7.9319    1.5725   53.5380 C.2     1  ZINC000058174787    0.0700
     27 N27        -8.8492    1.3191   54.5218 N.pl3   1  ZINC000058174787   -0.4500
     28 C28        -8.8962    1.9404   55.8476 C.3     1  ZINC000058174787    0.0600
     29 H29       -11.7592    0.3979   54.5982 H       1  ZINC000058174787    0.0900
     30 H30       -11.0408   -1.2243   54.4540 H       1  ZINC000058174787    0.1000
     31 H31       -10.6561   -0.2023   55.8597 H       1  ZINC000058174787    0.0800
     32 H32        -5.5337    1.3064   52.1460 H       1  ZINC000058174787    0.4200
     33 H33        -4.4428    0.1260   50.0002 H       1  ZINC000058174787    0.0900
     34 H34        -5.3594    1.4415   49.2270 H       1  ZINC000058174787    0.0900
     35 H35        -4.1578    3.0530   50.7957 H       1  ZINC000058174787    0.1200
     36 H36        -3.1139    1.6917   51.2706 H       1  ZINC000058174787    0.1200
     37 H37        -3.6901    2.0279   45.8010 H       1  ZINC000058174787    0.0800
     38 H38        -3.0760    3.4922   46.6054 H       1  ZINC000058174787    0.0800
     39 H39        -2.1634    2.7664   45.2607 H       1  ZINC000058174787    0.0800
     40 H40        -2.3354   -0.9146   44.1985 H       1  ZINC000058174787    0.1400
     41 H41        -1.1658   -0.8748   42.0368 H       1  ZINC000058174787    0.1400
     42 H42         1.7776    1.7623   43.6539 H       1  ZINC000058174787    0.1400
     43 H43         0.6215    1.7421   45.8232 H       1  ZINC000058174787    0.1500
     44 H44        -7.1084    2.2695   53.5896 H       1  ZINC000058174787    0.1900
     45 H45        -9.5108    2.8397   55.8058 H       1  ZINC000058174787    0.0900
     46 H46        -9.3267    1.2391   56.5624 H       1  ZINC000058174787    0.1000
     47 H47        -7.8863    2.2047   56.1610 H       1  ZINC000058174787    0.0900
@<TRIPOS>BOND
     1     1     2    1
     2     1    29    1
     3     1    30    1
     4     1    31    1
     5     2    27    1
     6     2     3    2
     7     3     4    1
     8     4     5    1
     9     4    26    2
    10     5     6    2
    11     5     7    2
    12     5     8   am
    13     8     9    1
    14     8    32    1
    15     9    10    1
    16     9    33    1
    17     9    34    1
    18    10    11    1
    19    10    35    1
    20    10    36    1
    21    11    12    2
    22    11    13    1
    23    13    14    1
    24    14    15    1
    25    14    16    1
    26    14    17    1
    27    16    37    1
    28    16    38    1
    29    16    39    1
    30    17    18    2
    31    17    19    1
    32    19    25   ar
    33    19    20   ar
    34    20    21   ar
    35    20    40    1
    36    21    22   ar
    37    21    41    1
    38    22    23    1
    39    22    24   ar
    40    24    25   ar
    41    24    42    1
    42    25    43    1
    43    26    27    1
    44    26    44    1
    45    27    28    1
    46    28    45    1
    47    28    46    1
    48    28    47    1
@<TRIPOS>SUBSTRUCTURE
     1 ZINC000058174787        1 TEMP              0 ****  ****    0 ROOT


##########                                Name:     oleObject52.pdb
##########                DOCK_Rotatable_Bonds:                  10
##########                         Heavy_Atoms:                  38
##########                    Molecular_Weight:              533.07
##########                DOCK_Rotatable_Bonds:                  10
##########                       Formal_Charge:         0.000300027
##########                     HBond_Acceptors:                   8
##########                        HBond_Donors:                   0
##########                         Heavy_Atoms:                  38
##########                          Grid_Score:          -39.956406
##########                     Grid_vdw_energy:          -38.770447
##########                      Grid_es_energy:           -1.185960
##########           Internal_energy_repulsive:           72.196968

@<TRIPOS>MOLECULE
oleObject52.pdb
 71 74 1 0 0
SMALL
NO_CHARGES


@<TRIPOS>ATOM
      1 C         -15.1137   -0.2994   49.7218 C.ar    1  UNL        -0.0596
      2 C         -14.0421    0.4363   50.2497 C.ar    1  UNL        -0.0314
      3 C         -13.1854   -0.1409   51.2113 C.ar    1  UNL         0.0800
      4 C         -13.4056   -1.4694   51.6435 C.ar    1  UNL         0.0089
      5 C         -14.4915   -2.1946   51.1074 C.ar    1  UNL        -0.0541
      6 C         -15.3389   -1.6140   50.1519 C.ar    1  UNL        -0.0617
      7 C         -12.4717   -2.0891   52.6943 C.3     1  UNL         0.0953
      8 C         -11.0438   -1.5203   52.6198 C.ar    1  UNL         0.0684
      9 C         -10.6199   -0.4503   53.4475 C.ar    1  UNL        -0.0272
     10 C          -9.2935    0.0051   53.3273 C.ar    1  UNL        -0.0559
     11 C          -8.4403   -0.6109   52.4006 C.ar    1  UNL        -0.0435
     12 C          -8.9413   -1.6663   51.6242 C.ar    1  UNL         0.0272
     13 N         -10.2078   -2.1091   51.7316 N.ar    1  UNL        -0.2587
     14 C         -11.5436    0.2059   54.4665 C.3     1  UNL        -0.0379
     15 N         -13.0442   -2.1369   54.0701 N.am    1  UNL        -0.2917
     16 C         -12.4509   -2.9363   55.0531 C.2     1  UNL         0.2180
     17 O         -11.3316   -3.3910   54.8847 O.2     1  UNL        -0.2772
     18 C         -13.1016   -2.9353   56.4600 C.3     1  UNL         0.0385
     19 C         -12.6930   -1.6933   57.2885 C.3     1  UNL        -0.0289
     20 C         -11.2384   -1.7878   57.7976 C.3     1  UNL        -0.0010
     21 N         -11.0208   -3.0155   58.5975 N.4     1  UNL        -0.3010
     22 C         -11.3622   -4.2510   57.8588 C.3     1  UNL        -0.0010
     23 C         -12.7958   -4.2207   57.2739 C.3     1  UNL        -0.0289
     24 C          -9.6788   -3.1105   59.2140 C.3     1  UNL         0.0222
     25 C          -9.4857   -2.1622   60.4154 C.3     1  UNL         0.0661
     26 O         -10.7275   -2.1136   61.1403 O.3     1  UNL        -0.3432
     27 C         -11.0454   -1.1210   62.0470 C.ar    1  UNL         0.0937
     28 C         -10.0670   -0.5031   62.8540 C.ar    1  UNL        -0.0289
     29 C         -10.4329    0.5029   63.7637 C.ar    1  UNL        -0.0417
     30 C         -11.7762    0.9012   63.8765 C.ar    1  UNL         0.0537
     31 C         -12.7538    0.2886   63.0743 C.ar    1  UNL        -0.0230
     32 C         -12.3908   -0.7177   62.1636 C.ar    1  UNL         0.0721
     33 CL        -13.6397   -1.4583   61.1803 Cl      1  UNL        -0.0814
     34 C         -12.1474    1.9287   64.8063 C.1     1  UNL         0.0992
     35 N         -12.4367    2.7568   65.5599 N.1     1  UNL        -0.1924
     36 C         -14.2666   -1.3416   54.3174 C.3     1  UNL         0.0037
     37 O         -12.1266    0.5676   51.7535 O.3     1  UNL        -0.3490
     38 C         -11.8065    1.9229   51.3972 C.3     1  UNL         0.0422
     39 H         -15.7697    0.1505   48.9821 H       1  UNL         0.0624
     40 H         -13.8889    1.4531   49.9043 H       1  UNL         0.0651
     41 H         -14.6879   -3.2121   51.4271 H       1  UNL         0.0627
     42 H         -16.1699   -2.1837   49.7460 H       1  UNL         0.0623
     43 H         -12.3832   -3.1381   52.3907 H       1  UNL         0.0627
     44 H          -8.9273    0.8198   53.9454 H       1  UNL         0.0627
     45 H          -7.4116   -0.2816   52.2891 H       1  UNL         0.0639
     46 H          -8.3102   -2.1746   50.8964 H       1  UNL         0.0840
     47 H         -12.4894    0.5097   54.0055 H       1  UNL         0.0280
     48 H         -11.0908    1.1034   54.9057 H       1  UNL         0.0280
     49 H         -11.7731   -0.4845   55.2879 H       1  UNL         0.0280
     50 H         -14.1882   -2.9120   56.3259 H       1  UNL         0.0402
     51 H         -13.3617   -1.6068   58.1547 H       1  UNL         0.0288
     52 H         -12.8250   -0.7760   56.7034 H       1  UNL         0.0288
     53 H         -11.0348   -0.8938   58.3982 H       1  UNL         0.0431
     54 H         -10.5526   -1.7789   56.9399 H       1  UNL         0.0431
     55 H         -11.2795   -5.1174   58.5276 H       1  UNL         0.0431
     56 H         -10.6407   -4.4010   57.0459 H       1  UNL         0.0431
     57 H         -13.5067   -4.2837   58.1079 H       1  UNL         0.0288
     58 H         -12.9649   -5.1103   56.6536 H       1  UNL         0.0288
     59 H          -8.9066   -2.8991   58.4627 H       1  UNL         0.0455
     60 H          -9.5187   -4.1362   59.5711 H       1  UNL         0.0455
     61 H          -9.2186   -1.1620   60.0510 H       1  UNL         0.0586
     62 H          -8.6864   -2.5342   61.0676 H       1  UNL         0.0586
     63 H          -9.0232   -0.7920   62.7856 H       1  UNL         0.0651
     64 H          -9.6707    0.9723   64.3804 H       1  UNL         0.0638
     65 H         -13.7945    0.5911   63.1556 H       1  UNL         0.0653
     66 H         -14.8431   -1.2180   53.3936 H       1  UNL         0.0433
     67 H         -13.9973   -0.3512   54.7044 H       1  UNL         0.0433
     68 H         -14.9166   -1.8524   55.0372 H       1  UNL         0.0433
     69 H         -10.9334    2.2602   51.9692 H       1  UNL         0.0535
     70 H         -12.6490    2.5883   51.6245 H       1  UNL         0.0535
     71 H         -11.5694    1.9932   50.3282 H       1  UNL         0.0535
@<TRIPOS>BOND
     1     1     2   ar
     2     1     6   ar
     3     1    39    1
     4     2     3   ar
     5     2    40    1
     6     3     4   ar
     7     3    37    1
     8     4     5   ar
     9     4     7    1
    10     5     6   ar
    11     5    41    1
    12     6    42    1
    13     7     8    1
    14     7    15    1
    15     7    43    1
    16     8     9   ar
    17     8    13   ar
    18     9    10   ar
    19     9    14    1
    20    10    11   ar
    21    10    44    1
    22    11    12   ar
    23    11    45    1
    24    12    13   ar
    25    12    46    1
    26    14    47    1
    27    14    48    1
    28    14    49    1
    29    15    16   am
    30    15    36    1
    31    16    17    2
    32    16    18    1
    33    18    19    1
    34    18    23    1
    35    18    50    1
    36    19    20    1
    37    19    51    1
    38    19    52    1
    39    20    21    1
    40    20    53    1
    41    20    54    1
    42    21    22    1
    43    21    24    1
    44    22    23    1
    45    22    55    1
    46    22    56    1
    47    23    57    1
    48    23    58    1
    49    24    25    1
    50    24    59    1
    51    24    60    1
    52    25    26    1
    53    25    61    1
    54    25    62    1
    55    26    27    1
    56    27    28   ar
    57    27    32   ar
    58    28    29   ar
    59    28    63    1
    60    29    30   ar
    61    29    64    1
    62    30    31   ar
    63    30    34    1
    64    31    32   ar
    65    31    65    1
    66    32    33    1
    67    34    35    3
    68    36    66    1
    69    36    67    1
    70    36    68    1
    71    37    38    1
    72    38    69    1
    73    38    70    1
    74    38    71    1
@<TRIPOS>SUBSTRUCTURE
     1 UNL         1 TEMP              0 ****  ****    0 ROOT


##########                                Name:    ZINC000484900616
##########                DOCK_Rotatable_Bonds:                  10
##########                         Heavy_Atoms:                  29
##########                    Molecular_Weight:             415.556
##########                DOCK_Rotatable_Bonds:                  10
##########                       Formal_Charge:        -1.49012e-08
##########                     HBond_Acceptors:                   7
##########                        HBond_Donors:                   1
##########                         Heavy_Atoms:                  29
##########                          Grid_Score:          -39.939541
##########                     Grid_vdw_energy:          -38.874203
##########                      Grid_es_energy:           -1.065339
##########           Internal_energy_repulsive:           13.458447

@<TRIPOS>MOLECULE
ZINC000484900616
 58 60 1 0 0
SMALL
USER_CHARGES


@<TRIPOS>ATOM
      1 C1         -3.5652    3.2634   53.1689 C.3     1  ZINC000484900616   -0.1500
      2 C2         -4.2433    3.2932   54.5401 C.3     1  ZINC000484900616    0.0600
      3 O3         -3.6269    2.3045   55.4065 O.3     1  ZINC000484900616   -0.3400
      4 C4         -4.1057    2.2081   56.6629 C.2     1  ZINC000484900616    0.5500
      5 O5         -3.5262    1.5236   57.4833 O.2     1  ZINC000484900616   -0.5000
      6 C6         -5.3298    2.9313   57.0411 C.2     1  ZINC000484900616    0.0200
      7 C7         -5.3286    4.0140   57.8522 C.2     1  ZINC000484900616   -0.2400
      8 S8         -6.9369    4.5602   58.0450 S.3     1  ZINC000484900616    0.2900
      9 C9         -7.5177    3.3133   57.0331 C.2     1  ZINC000484900616    0.0300
     10 C10        -8.9671    3.1006   56.6789 C.3     1  ZINC000484900616    0.1500
     11 H11        -9.6099    3.6416   57.3733 H       1  ZINC000484900616    0.0900
     12 C12        -9.2394    3.5579   55.2242 C.3     1  ZINC000484900616   -0.1200
     13 C13       -10.4933    2.7192   54.8617 C.3     1  ZINC000484900616   -0.1400
     14 C14       -10.2427    1.3845   55.5946 C.3     1  ZINC000484900616    0.0500
     15 N15        -9.2939    1.6588   56.6916 N.3     1  ZINC000484900616   -0.5100
     16 C16        -9.8556    1.2537   57.9871 C.3     1  ZINC000484900616    0.0300
     17 C17        -9.5996   -0.2149   58.2084 C.2     1  ZINC000484900616    0.5200
     18 O18        -9.1394   -0.8918   57.3135 O.2     1  ZINC000484900616   -0.5100
     19 N19        -9.8821   -0.7759   59.4008 N.am    1  ZINC000484900616   -0.7300
     20 C20        -9.6316   -2.2032   59.6165 C.3     1  ZINC000484900616    0.1900
     21 H21        -8.6469   -2.4622   59.2275 H       1  ZINC000484900616    0.1000
     22 C22        -9.6849   -2.5095   61.1147 C.3     1  ZINC000484900616   -0.1600
     23 C23       -10.6829   -3.0115   58.9009 C.ar    1  ZINC000484900616   -0.1000
     24 C24       -11.8923   -2.4313   58.5666 C.ar    1  ZINC000484900616   -0.1100
     25 C25       -12.8567   -3.1728   57.9101 C.ar    1  ZINC000484900616   -0.1100
     26 C26       -12.6117   -4.4944   57.5875 C.ar    1  ZINC000484900616   -0.0800
     27 C27       -13.6632   -5.3029   56.8722 C.3     1  ZINC000484900616   -0.0900
     28 C28       -13.9520   -4.6716   55.5087 C.3     1  ZINC000484900616   -0.1500
     29 C29       -11.4017   -5.0742   57.9204 C.ar    1  ZINC000484900616   -0.1100
     30 C30       -10.4359   -4.3316   58.5736 C.ar    1  ZINC000484900616   -0.1000
     31 N31        -6.5460    2.5839   56.6111 N.2     1  ZINC000484900616   -0.4300
     32 H32        -2.5052    3.4904   53.2828 H       1  ZINC000484900616    0.0700
     33 H33        -3.6794    2.2728   52.7286 H       1  ZINC000484900616    0.0700
     34 H34        -4.0279    4.0057   52.5185 H       1  ZINC000484900616    0.0800
     35 H35        -4.1291    4.2838   54.9804 H       1  ZINC000484900616    0.0700
     36 H36        -5.3033    3.0663   54.4263 H       1  ZINC000484900616    0.0700
     37 H37        -4.4550    4.4602   58.3038 H       1  ZINC000484900616    0.1900
     38 H38        -9.4586    4.6249   55.1847 H       1  ZINC000484900616    0.0900
     39 H39        -8.4015    3.3086   54.5732 H       1  ZINC000484900616    0.0800
     40 H40       -11.3986    3.1990   55.2337 H       1  ZINC000484900616    0.0700
     41 H41       -10.5538    2.5621   53.7848 H       1  ZINC000484900616    0.0800
     42 H42       -11.1789    1.0040   56.0027 H       1  ZINC000484900616    0.0600
     43 H43        -9.8137    0.6577   54.9048 H       1  ZINC000484900616    0.0900
     44 H44        -9.3837    1.8289   58.7836 H       1  ZINC000484900616    0.1100
     45 H45       -10.9296    1.4400   57.9916 H       1  ZINC000484900616    0.0700
     46 H46       -10.2513   -0.2348   60.1162 H       1  ZINC000484900616    0.4000
     47 H47        -9.4986   -3.5713   61.2752 H       1  ZINC000484900616    0.0700
     48 H48        -8.9244   -1.9248   61.6323 H       1  ZINC000484900616    0.0700
     49 H49       -10.6696   -2.2505   61.5036 H       1  ZINC000484900616    0.0600
     50 H50       -12.0838   -1.3987   58.8188 H       1  ZINC000484900616    0.1200
     51 H51       -13.8019   -2.7196   57.6497 H       1  ZINC000484900616    0.1200
     52 H52       -13.3043   -6.3225   56.7318 H       1  ZINC000484900616    0.0700
     53 H53       -14.5767   -5.3178   57.4666 H       1  ZINC000484900616    0.0700
     54 H54       -14.3109   -3.6520   55.6492 H       1  ZINC000484900616    0.0600
     55 H55       -13.0385   -4.6567   54.9143 H       1  ZINC000484900616    0.0600
     56 H56       -14.7126   -5.2564   54.9915 H       1  ZINC000484900616    0.0600
     57 H57       -11.2101   -6.1067   57.6680 H       1  ZINC000484900616    0.1200
     58 H58        -9.4905   -4.7846   58.8337 H       1  ZINC000484900616    0.1200
@<TRIPOS>BOND
     1     1     2    1
     2     1    32    1
     3     1    33    1
     4     1    34    1
     5     2     3    1
     6     2    35    1
     7     2    36    1
     8     3     4    1
     9     4     5    2
    10     4     6    1
    11     6    31    1
    12     6     7    2
    13     7     8    1
    14     7    37    1
    15     8     9    1
    16     9    10    1
    17     9    31    2
    18    10    11    1
    19    10    15    1
    20    10    12    1
    21    12    13    1
    22    12    38    1
    23    12    39    1
    24    13    14    1
    25    13    40    1
    26    13    41    1
    27    14    15    1
    28    14    42    1
    29    14    43    1
    30    15    16    1
    31    16    17    1
    32    16    44    1
    33    16    45    1
    34    17    18    2
    35    17    19   am
    36    19    20    1
    37    19    46    1
    38    20    21    1
    39    20    22    1
    40    20    23    1
    41    22    47    1
    42    22    48    1
    43    22    49    1
    44    23    30   ar
    45    23    24   ar
    46    24    25   ar
    47    24    50    1
    48    25    26   ar
    49    25    51    1
    50    26    27    1
    51    26    29   ar
    52    27    28    1
    53    27    52    1
    54    27    53    1
    55    28    54    1
    56    28    55    1
    57    28    56    1
    58    29    30   ar
    59    29    57    1
    60    30    58    1
@<TRIPOS>SUBSTRUCTURE
     1 ZINC000484900616        1 TEMP              0 ****  ****    0 ROOT


##########                                Name:    ZINC000816269301
##########                DOCK_Rotatable_Bonds:                   7
##########                         Heavy_Atoms:                  25
##########                    Molecular_Weight:             358.784
##########                DOCK_Rotatable_Bonds:                   7
##########                       Formal_Charge:           0.0100002
##########                     HBond_Acceptors:                   8
##########                        HBond_Donors:                   1
##########                         Heavy_Atoms:                  25
##########                          Grid_Score:          -39.856182
##########                     Grid_vdw_energy:          -40.524643
##########                      Grid_es_energy:            0.668463
##########           Internal_energy_repulsive:            5.720270

@<TRIPOS>MOLECULE
ZINC000816269301
 40 42 1 0 0
SMALL
USER_CHARGES


@<TRIPOS>ATOM
      1 C1         -9.9867   -1.4731   60.9278 C.3     1  ZINC000816269301    0.1000
      2 N2         -9.9713   -2.7149   60.1505 N.pl3   1  ZINC000816269301   -0.4000
      3 N3         -9.0347   -3.7536   60.2506 N.2     1  ZINC000816269301    0.0000
      4 N4         -9.3344   -4.6846   59.4150 N.2     1  ZINC000816269301   -0.2000
      5 C5        -10.4492   -4.3487   58.7231 C.ar    1  ZINC000816269301   -0.0300
      6 C6        -11.1796   -4.9922   57.7206 C.ar    1  ZINC000816269301    0.0500
      7 C7        -12.3094   -4.3777   57.1938 C.ar    1  ZINC000816269301   -0.1400
      8 C8        -13.0863   -5.0512   56.1351 C.2     1  ZINC000816269301    0.5200
      9 O9        -13.7201   -6.0552   56.3921 O.2     1  ZINC000816269301   -0.5000
     10 O10       -13.0928   -4.5524   54.8835 O.3     1  ZINC000816269301   -0.3500
     11 C11       -11.9030   -3.8415   54.4509 C.3     1  ZINC000816269301    0.0500
     12 C12       -12.0432   -3.4631   52.9751 C.3     1  ZINC000816269301    0.1200
     13 N13       -10.8320   -2.7684   52.5319 N.am    1  ZINC000816269301   -0.7200
     14 C14       -10.7238   -1.4344   52.6911 C.2     1  ZINC000816269301    0.5600
     15 O15       -11.6307   -0.8080   53.2039 O.2     1  ZINC000816269301   -0.5300
     16 C16        -9.5027   -0.7334   52.2424 C.ar    1  ZINC000816269301   -0.1300
     17 C17        -9.3683    0.6411   52.4472 C.ar    1  ZINC000816269301   -0.0700
     18 C18        -8.2265    1.2898   52.0262 C.ar    1  ZINC000816269301   -0.1200
     19 C19        -7.2142    0.5803   51.4013 C.ar    1  ZINC000816269301   -0.0100
     20 Cl20       -5.7794    1.4037   50.8746 Cl      1  ZINC000816269301   -0.0600
     21 C21        -7.3418   -0.7835   51.1953 C.ar    1  ZINC000816269301   -0.1200
     22 C22        -8.4764   -1.4440   51.6170 C.ar    1  ZINC000816269301   -0.0500
     23 C23       -12.7144   -3.1200   57.6647 C.ar    1  ZINC000816269301   -0.0200
     24 C24       -12.0060   -2.4876   58.6423 C.ar    1  ZINC000816269301   -0.1300
     25 C25       -10.8743   -3.0897   59.1872 C.ar    1  ZINC000816269301    0.1100
     26 H26       -10.5668   -1.6217   61.8386 H       1  ZINC000816269301    0.0900
     27 H27        -8.9655   -1.1951   61.1888 H       1  ZINC000816269301    0.1000
     28 H28       -10.4391   -0.6786   60.3344 H       1  ZINC000816269301    0.1000
     29 H29       -10.8681   -5.9604   57.3573 H       1  ZINC000816269301    0.1600
     30 H30       -11.7826   -2.9375   55.0479 H       1  ZINC000816269301    0.0800
     31 H31       -11.0301   -4.4815   54.5806 H       1  ZINC000816269301    0.1000
     32 H32       -12.1825   -4.3658   52.3802 H       1  ZINC000816269301    0.1000
     33 H33       -12.9049   -2.8079   52.8483 H       1  ZINC000816269301    0.0900
     34 H34       -10.1078   -3.2684   52.1239 H       1  ZINC000816269301    0.4000
     35 H35       -10.1571    1.1953   52.9340 H       1  ZINC000816269301    0.1400
     36 H36        -8.1215    2.3530   52.1838 H       1  ZINC000816269301    0.1400
     37 H37        -6.5492   -1.3313   50.7074 H       1  ZINC000816269301    0.1400
     38 H38        -8.5747   -2.5074   51.4562 H       1  ZINC000816269301    0.1500
     39 H39       -13.5934   -2.6493   57.2495 H       1  ZINC000816269301    0.1500
     40 H40       -12.3255   -1.5194   58.9986 H       1  ZINC000816269301    0.1400
@<TRIPOS>BOND
     1     1     2    1
     2     1    26    1
     3     1    27    1
     4     1    28    1
     5     2    25    1
     6     2     3    1
     7     3     4    2
     8     4     5    1
     9     5    25   ar
    10     5     6   ar
    11     6     7   ar
    12     6    29    1
    13     7     8    1
    14     7    23   ar
    15     8     9    2
    16     8    10    1
    17    10    11    1
    18    11    12    1
    19    11    30    1
    20    11    31    1
    21    12    13    1
    22    12    32    1
    23    12    33    1
    24    13    14   am
    25    13    34    1
    26    14    15    2
    27    14    16    1
    28    16    22   ar
    29    16    17   ar
    30    17    18   ar
    31    17    35    1
    32    18    19   ar
    33    18    36    1
    34    19    20    1
    35    19    21   ar
    36    21    22   ar
    37    21    37    1
    38    22    38    1
    39    23    24   ar
    40    23    39    1
    41    24    25   ar
    42    24    40    1
@<TRIPOS>SUBSTRUCTURE
     1 ZINC000816269301        1 TEMP              0 ****  ****    0 ROOT


##########                                Name:    ZINC000375302598
##########                DOCK_Rotatable_Bonds:                   8
##########                         Heavy_Atoms:                  27
##########                    Molecular_Weight:             368.479
##########                DOCK_Rotatable_Bonds:                   8
##########                       Formal_Charge:               -0.02
##########                     HBond_Acceptors:                   6
##########                        HBond_Donors:                   1
##########                         Heavy_Atoms:                  27
##########                          Grid_Score:          -39.608971
##########                     Grid_vdw_energy:          -39.027039
##########                      Grid_es_energy:           -0.581933
##########           Internal_energy_repulsive:            8.389650

@<TRIPOS>MOLECULE
ZINC000375302598
 55 58 1 0 0
SMALL
USER_CHARGES


@<TRIPOS>ATOM
      1 C1         -9.3014   -3.7066   59.2593 C.3     1  ZINC000375302598   -0.1500
      2 C2         -9.9888   -2.9875   60.4219 C.3     1  ZINC000375302598   -0.0300
      3 C3        -11.4681   -2.8932   60.1501 C.2     1  ZINC000375302598    0.1800
      4 N4        -12.0581   -3.0236   58.9863 N.2     1  ZINC000375302598   -0.4700
      5 C5        -13.3718   -2.8632   59.2265 C.2     1  ZINC000375302598    0.1800
      6 C6        -14.4789   -2.9231   58.2058 C.3     1  ZINC000375302598    0.1500
      7 N7        -13.9838   -3.5710   56.9838 N.3     1  ZINC000375302598   -0.5300
      8 C8        -15.0132   -4.4351   56.3922 C.3     1  ZINC000375302598    0.0500
      9 C9        -14.4185   -5.2026   55.2094 C.3     1  ZINC000375302598   -0.1100
     10 C10       -13.9022   -4.2058   54.1681 C.3     1  ZINC000375302598   -0.1300
     11 C11       -12.8670   -3.2865   54.8223 C.3     1  ZINC000375302598    0.1500
     12 H12       -12.0184   -3.8792   55.1638 H       1  ZINC000375302598    0.1000
     13 N13       -12.4094   -2.2935   53.8474 N.am    1  ZINC000375302598   -0.7300
     14 C14       -11.5234   -2.6435   52.8940 C.2     1  ZINC000375302598    0.5200
     15 O15       -11.1039   -3.7803   52.8441 O.2     1  ZINC000375302598   -0.5300
     16 C16       -11.0539   -1.6223   51.8901 C.3     1  ZINC000375302598   -0.1100
     17 C17        -9.7723   -0.9592   52.3984 C.3     1  ZINC000375302598   -0.1200
     18 H18        -8.8689   -1.5648   52.3257 H       1  ZINC000375302598    0.1200
     19 C19        -9.8933   -0.0116   53.5935 C.3     1  ZINC000375302598   -0.1700
     20 C20        -9.6291    0.5503   52.1944 C.3     1  ZINC000375302598   -0.1100
     21 H21       -10.4481    1.0712   51.6983 H       1  ZINC000375302598    0.1100
     22 C22        -8.2501    1.0868   51.9090 C.ar    1  ZINC000375302598   -0.0500
     23 C23        -7.3502    0.3290   51.1830 C.ar    1  ZINC000375302598   -0.1200
     24 C24        -6.0853    0.8211   50.9212 C.ar    1  ZINC000375302598   -0.1200
     25 C25        -5.7202    2.0711   51.3847 C.ar    1  ZINC000375302598   -0.1300
     26 C26        -6.6203    2.8293   52.1099 C.ar    1  ZINC000375302598   -0.1200
     27 C27        -7.8868    2.3390   52.3681 C.ar    1  ZINC000375302598   -0.1100
     28 C28       -13.5066   -2.5746   56.0164 C.3     1  ZINC000375302598    0.0500
     29 N29       -13.5109   -2.6475   60.5004 N.2     1  ZINC000375302598   -0.3800
     30 O30       -12.4298   -2.6665   61.0500 O.3     1  ZINC000375302598    0.0800
     31 H31        -9.4667   -3.1482   58.3380 H       1  ZINC000375302598    0.0600
     32 H32        -8.2316   -3.7749   59.4560 H       1  ZINC000375302598    0.0800
     33 H33        -9.7165   -4.7092   59.1559 H       1  ZINC000375302598    0.0600
     34 H34        -9.8236   -3.5460   61.3432 H       1  ZINC000375302598    0.1100
     35 H35        -9.5738   -1.9849   60.5253 H       1  ZINC000375302598    0.1000
     36 H36       -15.3137   -3.4967   58.6085 H       1  ZINC000375302598    0.0700
     37 H37       -14.8123   -1.9121   57.9716 H       1  ZINC000375302598    0.1100
     38 H38       -15.3688   -5.1419   57.1420 H       1  ZINC000375302598    0.0800
     39 H39       -15.8461   -3.8231   56.0463 H       1  ZINC000375302598    0.0400
     40 H40       -13.5943   -5.8254   55.5570 H       1  ZINC000375302598    0.0700
     41 H41       -15.1870   -5.8323   54.7608 H       1  ZINC000375302598    0.0700
     42 H42       -13.4388   -4.7476   53.3435 H       1  ZINC000375302598    0.0700
     43 H43       -14.7331   -3.6091   53.7917 H       1  ZINC000375302598    0.0600
     44 H44       -12.7440   -1.3839   53.8880 H       1  ZINC000375302598    0.4000
     45 H45       -10.8556   -2.1138   50.9376 H       1  ZINC000375302598    0.1000
     46 H46       -11.8257   -0.8648   51.7542 H       1  ZINC000375302598    0.1000
     47 H47       -10.8859    0.1393   54.0176 H       1  ZINC000375302598    0.1000
     48 H48        -9.0693    0.0065   54.3069 H       1  ZINC000375302598    0.1000
     49 H49        -7.6355   -0.6477   50.8208 H       1  ZINC000375302598    0.1200
     50 H50        -5.3821    0.2287   50.3546 H       1  ZINC000375302598    0.1200
     51 H51        -4.7317    2.4553   51.1807 H       1  ZINC000375302598    0.1200
     52 H52        -6.3351    3.8058   52.4724 H       1  ZINC000375302598    0.1200
     53 H53        -8.5900    2.9314   52.9347 H       1  ZINC000375302598    0.1200
     54 H54       -14.3467   -1.9713   55.6722 H       1  ZINC000375302598    0.0400
     55 H55       -12.7681   -1.9300   56.4931 H       1  ZINC000375302598    0.0900
@<TRIPOS>BOND
     1     1     2    1
     2     1    31    1
     3     1    32    1
     4     1    33    1
     5     2     3    1
     6     2    34    1
     7     2    35    1
     8     3    30    1
     9     3     4    2
    10     4     5    1
    11     5     6    1
    12     5    29    2
    13     6     7    1
    14     6    36    1
    15     6    37    1
    16     7    28    1
    17     7     8    1
    18     8     9    1
    19     8    38    1
    20     8    39    1
    21     9    10    1
    22     9    40    1
    23     9    41    1
    24    10    11    1
    25    10    42    1
    26    10    43    1
    27    11    12    1
    28    11    13    1
    29    11    28    1
    30    13    14   am
    31    13    44    1
    32    14    15    2
    33    14    16    1
    34    16    17    1
    35    16    45    1
    36    16    46    1
    37    17    18    1
    38    17    20    1
    39    17    19    1
    40    19    20    1
    41    19    47    1
    42    19    48    1
    43    20    21    1
    44    20    22    1
    45    22    27   ar
    46    22    23   ar
    47    23    24   ar
    48    23    49    1
    49    24    25   ar
    50    24    50    1
    51    25    26   ar
    52    25    51    1
    53    26    27   ar
    54    26    52    1
    55    27    53    1
    56    28    54    1
    57    28    55    1
    58    29    30    1
@<TRIPOS>SUBSTRUCTURE
     1 ZINC000375302598        1 TEMP              0 ****  ****    0 ROOT


##########                                Name:    ZINC000051488227
##########                DOCK_Rotatable_Bonds:                   8
##########                         Heavy_Atoms:                  30
##########                    Molecular_Weight:             403.478
##########                DOCK_Rotatable_Bonds:                   8
##########                       Formal_Charge:           0.0199996
##########                     HBond_Acceptors:                   5
##########                        HBond_Donors:                   0
##########                         Heavy_Atoms:                  30
##########                          Grid_Score:          -39.379272
##########                     Grid_vdw_energy:          -39.363850
##########                      Grid_es_energy:           -0.015422
##########           Internal_energy_repulsive:           26.961735

@<TRIPOS>MOLECULE
ZINC000051488227
 55 58 1 0 0
SMALL
USER_CHARGES


@<TRIPOS>ATOM
      1 O1        -13.8586   -2.0407   55.5021 O.2     1  ZINC000051488227   -0.5000
      2 C2        -13.1827   -3.0257   55.6840 C.2     1  ZINC000051488227    0.4800
      3 O3        -12.6154   -3.6523   54.6413 O.3     1  ZINC000051488227   -0.3400
      4 C4        -12.8588   -3.0924   53.3239 C.3     1  ZINC000051488227    0.1100
      5 C5        -11.7372   -2.1531   52.9623 C.ar    1  ZINC000051488227   -0.1400
      6 C6        -11.8901   -0.7916   53.1483 C.ar    1  ZINC000051488227   -0.0500
      7 C7        -10.8635    0.0716   52.8175 C.ar    1  ZINC000051488227   -0.1500
      8 C8         -9.6780   -0.4289   52.2989 C.ar    1  ZINC000051488227    0.1500
      9 O9         -8.6664    0.4181   51.9732 O.3     1  ZINC000051488227   -0.3100
     10 C10        -7.4781   -0.1666   51.4364 C.3     1  ZINC000051488227    0.1100
     11 C11        -6.4043    0.8855   51.3303 C.ar    1  ZINC000051488227    0.1200
     12 C12        -6.3711    1.9218   52.2437 C.ar    1  ZINC000051488227   -0.1500
     13 C13        -5.3786    2.8845   52.1375 C.ar    1  ZINC000051488227   -0.0700
     14 C14        -4.4530    2.7675   51.1121 C.ar    1  ZINC000051488227   -0.1700
     15 C15        -4.5495    1.7029   50.2358 C.ar    1  ZINC000051488227    0.1100
     16 N16        -5.5040    0.8032   50.3702 N.ar    1  ZINC000051488227   -0.4800
     17 C17        -9.5269   -1.7955   52.1137 C.ar    1  ZINC000051488227   -0.2100
     18 C18       -10.5548   -2.6548   52.4505 C.ar    1  ZINC000051488227   -0.0500
     19 C19       -12.9714   -3.5467   57.0822 C.3     1  ZINC000051488227    0.0000
     20 C20       -11.8811   -2.7541   57.7561 C.ar    1  ZINC000051488227   -0.0900
     21 C21       -11.7019   -2.8490   59.1235 C.ar    1  ZINC000051488227   -0.1100
     22 C22       -10.7017   -2.1221   59.7416 C.ar    1  ZINC000051488227   -0.1200
     23 C23        -9.8805   -1.3005   58.9924 C.ar    1  ZINC000051488227   -0.1100
     24 C24       -10.0591   -1.2063   57.6248 C.ar    1  ZINC000051488227   -0.1200
     25 C25       -11.0564   -1.9366   57.0060 C.ar    1  ZINC000051488227   -0.1000
     26 C26       -14.2719   -3.4140   57.8805 C.3     1  ZINC000051488227   -0.1400
     27 C27       -15.3512   -4.2843   57.2313 C.3     1  ZINC000051488227    0.0600
     28 O28       -14.9013   -5.6396   57.1800 O.3     1  ZINC000051488227   -0.3800
     29 C29       -13.7146   -5.8317   56.4072 C.3     1  ZINC000051488227    0.0500
     30 C30       -12.5697   -5.0236   57.0235 C.3     1  ZINC000051488227   -0.1400
     31 H31       -12.9093   -3.8973   52.5906 H       1  ZINC000051488227    0.0800
     32 H32       -13.8022   -2.5465   53.3298 H       1  ZINC000051488227    0.0800
     33 H33       -12.8132   -0.4025   53.5520 H       1  ZINC000051488227    0.1300
     34 H34       -10.9837    1.1350   52.9623 H       1  ZINC000051488227    0.1400
     35 H35        -7.1386   -0.9675   52.0932 H       1  ZINC000051488227    0.0900
     36 H36        -7.6881   -0.5726   50.4468 H       1  ZINC000051488227    0.0900
     37 H37        -7.1090    1.9816   53.0300 H       1  ZINC000051488227    0.1400
     38 H38        -5.3280    3.7058   52.8369 H       1  ZINC000051488227    0.1400
     39 H39        -3.6667    3.4992   50.9991 H       1  ZINC000051488227    0.1400
     40 H40        -3.8325    1.6049   49.4340 H       1  ZINC000051488227    0.1600
     41 H41        -8.6052   -2.1874   51.7098 H       1  ZINC000051488227    0.1300
     42 H42       -10.4375   -3.7188   52.3069 H       1  ZINC000051488227    0.1300
     43 H43       -12.3436   -3.4909   59.7089 H       1  ZINC000051488227    0.1300
     44 H44       -10.5623   -2.1956   60.8100 H       1  ZINC000051488227    0.1300
     45 H45        -9.0995   -0.7320   59.4754 H       1  ZINC000051488227    0.1200
     46 H46        -9.4176   -0.5642   57.0394 H       1  ZINC000051488227    0.1200
     47 H47       -11.1959   -1.8629   55.9376 H       1  ZINC000051488227    0.1300
     48 H48       -14.1054   -3.7447   58.9057 H       1  ZINC000051488227    0.0900
     49 H49       -14.5948   -2.3729   57.8806 H       1  ZINC000051488227    0.0900
     50 H50       -16.2668   -4.2272   57.8197 H       1  ZINC000051488227    0.1000
     51 H51       -15.5460   -3.9274   56.2198 H       1  ZINC000051488227    0.0500
     52 H52       -13.4515   -6.8894   56.4021 H       1  ZINC000051488227    0.1000
     53 H53       -13.8880   -5.4952   55.3851 H       1  ZINC000051488227    0.0700
     54 H54       -11.6751   -5.1337   56.4105 H       1  ZINC000051488227    0.0900
     55 H55       -12.3688   -5.3868   58.0314 H       1  ZINC000051488227    0.0900
@<TRIPOS>BOND
     1     1     2    2
     2     2     3    1
     3     2    19    1
     4     3     4    1
     5     4     5    1
     6     4    31    1
     7     4    32    1
     8     5    18   ar
     9     5     6   ar
    10     6     7   ar
    11     6    33    1
    12     7     8   ar
    13     7    34    1
    14     8     9    1
    15     8    17   ar
    16     9    10    1
    17    10    11    1
    18    10    35    1
    19    10    36    1
    20    11    16   ar
    21    11    12   ar
    22    12    13   ar
    23    12    37    1
    24    13    14   ar
    25    13    38    1
    26    14    15   ar
    27    14    39    1
    28    15    16   ar
    29    15    40    1
    30    17    18   ar
    31    17    41    1
    32    18    42    1
    33    19    30    1
    34    19    20    1
    35    19    26    1
    36    20    25   ar
    37    20    21   ar
    38    21    22   ar
    39    21    43    1
    40    22    23   ar
    41    22    44    1
    42    23    24   ar
    43    23    45    1
    44    24    25   ar
    45    24    46    1
    46    25    47    1
    47    26    27    1
    48    26    48    1
    49    26    49    1
    50    27    28    1
    51    27    50    1
    52    27    51    1
    53    28    29    1
    54    29    30    1
    55    29    52    1
    56    29    53    1
    57    30    54    1
    58    30    55    1
@<TRIPOS>SUBSTRUCTURE
     1 ZINC000051488227        1 TEMP              0 ****  ****    0 ROOT


##########                                Name:    ZINC001342153661
##########                DOCK_Rotatable_Bonds:                   8
##########                         Heavy_Atoms:                  29
##########                    Molecular_Weight:             395.548
##########                DOCK_Rotatable_Bonds:                   8
##########                       Formal_Charge:          -0.0400005
##########                     HBond_Acceptors:                   6
##########                        HBond_Donors:                   1
##########                         Heavy_Atoms:                  29
##########                          Grid_Score:          -39.363400
##########                     Grid_vdw_energy:          -38.858555
##########                      Grid_es_energy:           -0.504845
##########           Internal_energy_repulsive:           15.346684

@<TRIPOS>MOLECULE
ZINC001342153661
 62 65 1 0 0
SMALL
USER_CHARGES


@<TRIPOS>ATOM
      1 C1        -14.1987   -2.3506   61.1798 C.2     1  ZINC001342153661   -0.1400
      2 C2        -14.1680   -2.7870   59.9450 C.2     1  ZINC001342153661   -0.1600
      3 C3        -15.1024   -3.8869   59.5112 C.3     1  ZINC001342153661   -0.1200
      4 C4        -13.1984   -2.1891   58.9584 C.3     1  ZINC001342153661    0.1500
      5 N5        -12.2303   -3.2084   58.5462 N.pl3   1  ZINC001342153661   -0.4700
      6 C6        -11.1273   -3.6270   59.2378 C.2     1  ZINC001342153661    0.1800
      7 C7        -10.6719   -3.1225   60.5828 C.3     1  ZINC001342153661   -0.0600
      8 C8         -9.6623   -1.9896   60.3874 C.3     1  ZINC001342153661    0.1600
      9 H9         -8.6608   -2.4085   60.2888 H       1  ZINC001342153661    0.1000
     10 O10        -9.9907   -1.2575   59.2049 O.3     1  ZINC001342153661   -0.5400
     11 C11        -9.7060   -1.0668   61.5780 C.ar    1  ZINC001342153661   -0.1700
     12 C12       -10.5334    0.0453   61.5739 C.ar    1  ZINC001342153661   -0.0600
     13 C13       -10.5414    0.8662   62.6916 C.ar    1  ZINC001342153661   -0.1700
     14 C14        -9.7298    0.5505   63.7645 C.ar    1  ZINC001342153661    0.1000
     15 N15        -8.9550   -0.5162   63.7335 N.ar    1  ZINC001342153661   -0.4800
     16 C16        -8.9257   -1.3217   62.6901 C.ar    1  ZINC001342153661    0.1100
     17 N17       -10.5438   -4.5435   58.5187 N.2     1  ZINC001342153661   -0.2700
     18 N18       -11.1978   -4.7310   57.4283 N.2     1  ZINC001342153661   -0.3200
     19 C19       -12.2452   -3.9412   57.3953 C.2     1  ZINC001342153661    0.3600
     20 N20       -13.1844   -3.8604   56.3795 N.3     1  ZINC001342153661   -0.4500
     21 C21       -13.6895   -5.1922   56.0225 C.3     1  ZINC001342153661    0.0500
     22 C22       -14.8243   -5.0531   55.0052 C.3     1  ZINC001342153661   -0.1200
     23 C23       -14.3005   -4.3344   53.7587 C.3     1  ZINC001342153661   -0.1200
     24 C24       -13.7362   -2.9702   54.1651 C.3     1  ZINC001342153661   -0.0800
     25 H25       -14.5322   -2.3592   54.5906 H       1  ZINC001342153661    0.0800
     26 C26       -13.1571   -2.2699   52.9342 C.3     1  ZINC001342153661   -0.0800
     27 C27       -14.2881   -1.8783   51.9511 C.3     1  ZINC001342153661   -0.1200
     28 C28       -13.6550   -0.7155   51.1472 C.3     1  ZINC001342153661   -0.1300
     29 C29       -12.8337    0.0651   52.1942 C.3     1  ZINC001342153661   -0.1300
     30 C30       -12.5172   -0.9232   53.3304 C.3     1  ZINC001342153661   -0.1200
     31 C31       -12.6329   -3.1697   55.2068 C.3     1  ZINC001342153661    0.0800
     32 H32       -14.8936   -2.7790   61.8869 H       1  ZINC001342153661    0.1000
     33 H33       -13.5261   -1.5654   61.4919 H       1  ZINC001342153661    0.1100
     34 H34       -16.0603   -3.4562   59.2201 H       1  ZINC001342153661    0.0700
     35 H35       -14.6699   -4.4176   58.6630 H       1  ZINC001342153661    0.0600
     36 H36       -15.2526   -4.5828   60.3366 H       1  ZINC001342153661    0.0700
     37 H37       -13.7432   -1.8312   58.0848 H       1  ZINC001342153661    0.1000
     38 H38       -12.6726   -1.3562   59.4250 H       1  ZINC001342153661    0.1000
     39 H39       -11.5310   -2.7511   61.1415 H       1  ZINC001342153661    0.1100
     40 H40       -10.2027   -3.9359   61.1363 H       1  ZINC001342153661    0.1000
     41 H41       -10.0656   -1.8051   58.4114 H       1  ZINC001342153661    0.3800
     42 H42       -11.1569    0.2675   60.7204 H       1  ZINC001342153661    0.1300
     43 H43       -11.1734    1.7414   62.7228 H       1  ZINC001342153661    0.1400
     44 H44        -9.7300    1.1849   64.6386 H       1  ZINC001342153661    0.1600
     45 H45        -8.2782   -2.1861   62.7010 H       1  ZINC001342153661    0.1500
     46 H46       -12.8825   -5.7823   55.5879 H       1  ZINC001342153661    0.0500
     47 H47       -14.0627   -5.6908   56.9171 H       1  ZINC001342153661    0.0700
     48 H48       -15.1885   -6.0426   54.7287 H       1  ZINC001342153661    0.0800
     49 H49       -15.6375   -4.4748   55.4440 H       1  ZINC001342153661    0.0700
     50 H50       -13.5137   -4.9314   53.2977 H       1  ZINC001342153661    0.0600
     51 H51       -15.1161   -4.1946   53.0492 H       1  ZINC001342153661    0.0700
     52 H52       -12.4251   -2.9097   52.4414 H       1  ZINC001342153661    0.0800
     53 H53       -14.5350   -2.7124   51.2942 H       1  ZINC001342153661    0.0700
     54 H54       -15.1704   -1.5377   52.4930 H       1  ZINC001342153661    0.0700
     55 H55       -13.0039   -1.1035   50.3637 H       1  ZINC001342153661    0.0600
     56 H56       -14.4307   -0.0802   50.7200 H       1  ZINC001342153661    0.0600
     57 H57       -11.9085    0.4289   51.7474 H       1  ZINC001342153661    0.0600
     58 H58       -13.4175    0.9014   52.5786 H       1  ZINC001342153661    0.0600
     59 H59       -12.9474   -0.5664   54.2663 H       1  ZINC001342153661    0.0600
     60 H60       -11.4385   -1.0388   53.4350 H       1  ZINC001342153661    0.0600
     61 H61       -12.2388   -2.1994   55.5087 H       1  ZINC001342153661    0.0900
     62 H62       -11.8309   -3.7692   54.7760 H       1  ZINC001342153661    0.0500
@<TRIPOS>BOND
     1     1     2    2
     2     1    32    1
     3     1    33    1
     4     2     3    1
     5     2     4    1
     6     3    34    1
     7     3    35    1
     8     3    36    1
     9     4     5    1
    10     4    37    1
    11     4    38    1
    12     5    19    1
    13     5     6    1
    14     6     7    1
    15     6    17    2
    16     7     8    1
    17     7    39    1
    18     7    40    1
    19     8     9    1
    20     8    10    1
    21     8    11    1
    22    10    41    1
    23    11    16   ar
    24    11    12   ar
    25    12    13   ar
    26    12    42    1
    27    13    14   ar
    28    13    43    1
    29    14    15   ar
    30    14    44    1
    31    15    16   ar
    32    16    45    1
    33    17    18    1
    34    18    19    2
    35    19    20    1
    36    20    31    1
    37    20    21    1
    38    21    22    1
    39    21    46    1
    40    21    47    1
    41    22    23    1
    42    22    48    1
    43    22    49    1
    44    23    24    1
    45    23    50    1
    46    23    51    1
    47    24    25    1
    48    24    26    1
    49    24    31    1
    50    26    30    1
    51    26    27    1
    52    26    52    1
    53    27    28    1
    54    27    53    1
    55    27    54    1
    56    28    29    1
    57    28    55    1
    58    28    56    1
    59    29    30    1
    60    29    57    1
    61    29    58    1
    62    30    59    1
    63    30    60    1
    64    31    61    1
    65    31    62    1
@<TRIPOS>SUBSTRUCTURE
     1 ZINC001342153661        1 TEMP              0 ****  ****    0 ROOT


##########                                Name:    ZINC000746432885
##########                DOCK_Rotatable_Bonds:                  11
##########                         Heavy_Atoms:                  31
##########                    Molecular_Weight:              419.44
##########                DOCK_Rotatable_Bonds:                  11
##########                       Formal_Charge:           0.0199995
##########                     HBond_Acceptors:                   9
##########                        HBond_Donors:                   2
##########                         Heavy_Atoms:                  31
##########                          Grid_Score:          -39.263607
##########                     Grid_vdw_energy:          -36.070030
##########                      Grid_es_energy:           -3.193578
##########           Internal_energy_repulsive:           18.256300

@<TRIPOS>MOLECULE
ZINC000746432885
 52 54 1 0 0
SMALL
USER_CHARGES


@<TRIPOS>ATOM
      1 C1        -14.5363   -2.2589   60.5939 C.3     1  ZINC000746432885    0.0300
      2 O2        -15.3248   -3.1620   59.8162 O.3     1  ZINC000746432885   -0.3200
      3 C3        -14.6805   -3.8706   58.8520 C.ar    1  ZINC000746432885    0.1300
      4 C4        -15.2258   -5.0552   58.3788 C.ar    1  ZINC000746432885   -0.2000
      5 C5        -14.5689   -5.7736   57.3987 C.ar    1  ZINC000746432885   -0.0800
      6 C6        -13.3687   -5.3132   56.8896 C.ar    1  ZINC000746432885   -0.1400
      7 C7        -12.8232   -4.1328   57.3595 C.ar    1  ZINC000746432885   -0.0600
      8 C8        -11.5151   -3.6335   56.8021 C.3     1  ZINC000746432885    0.2300
      9 N9        -11.7753   -2.6009   55.7959 N.am    1  ZINC000746432885   -0.6900
     10 C10       -12.1623   -2.9528   54.5538 C.2     1  ZINC000746432885    0.5200
     11 O11       -12.2965   -4.1250   54.2691 O.2     1  ZINC000746432885   -0.5100
     12 C12       -12.4258   -1.9005   53.5277 C.2     1  ZINC000746432885    0.5100
     13 O13       -11.8103   -0.8545   53.5589 O.2     1  ZINC000746432885   -0.5100
     14 N14       -13.3470   -2.1118   52.5668 N.am    1  ZINC000746432885   -0.6100
     15 C15       -13.5938   -1.1225   51.6005 C.2     1  ZINC000746432885    0.0000
     16 C16       -13.7110   -1.3222   50.2618 C.2     1  ZINC000746432885    0.0400
     17 N17       -13.9459   -0.1208   49.6872 N.pl3   1  ZINC000746432885   -0.3800
     18 C18       -14.1378    0.1262   48.2561 C.3     1  ZINC000746432885    0.2500
     19 C19       -14.8119   -1.0306   47.6445 C.1     1  ZINC000746432885    0.1900
     20 N20       -15.3324   -1.9233   47.1726 N.1     1  ZINC000746432885   -0.3900
     21 N21       -13.9740    0.8458   50.7004 N.2     1  ZINC000746432885   -0.2800
     22 C22       -13.7693    0.2481   51.8460 C.2     1  ZINC000746432885    0.0700
     23 C23       -10.6840   -3.0511   57.9162 C.ar    1  ZINC000746432885   -0.0500
     24 C24        -9.9137   -3.8808   58.7098 C.ar    1  ZINC000746432885   -0.1500
     25 C25        -9.1498   -3.3494   59.7324 C.ar    1  ZINC000746432885   -0.0700
     26 C26        -9.1545   -1.9875   59.9637 C.ar    1  ZINC000746432885   -0.2000
     27 C27        -9.9266   -1.1528   59.1689 C.ar    1  ZINC000746432885    0.1300
     28 O28        -9.9330    0.1873   59.3945 O.3     1  ZINC000746432885   -0.3200
     29 C29       -10.5263    0.6371   60.6142 C.3     1  ZINC000746432885    0.0300
     30 C30       -10.6881   -1.6879   58.1401 C.ar    1  ZINC000746432885   -0.1300
     31 C31       -13.4792   -3.4076   58.3351 C.ar    1  ZINC000746432885   -0.1300
     32 H32       -14.0825   -1.5157   59.9383 H       1  ZINC000746432885    0.0600
     33 H33       -15.1715   -1.7589   61.3251 H       1  ZINC000746432885    0.1000
     34 H34       -13.7534   -2.8132   61.1115 H       1  ZINC000746432885    0.0600
     35 H35       -16.1629   -5.4157   58.7766 H       1  ZINC000746432885    0.1300
     36 H36       -14.9930   -6.6959   57.0299 H       1  ZINC000746432885    0.1300
     37 H37       -12.8563   -5.8766   56.1239 H       1  ZINC000746432885    0.1200
     38 H38       -10.9764   -4.4618   56.3418 H       1  ZINC000746432885    0.1200
     39 H39       -11.6692   -1.6640   56.0237 H       1  ZINC000746432885    0.4200
     40 H40       -13.8396   -2.9470   52.5426 H       1  ZINC000746432885    0.4200
     41 H41       -13.6308   -2.2694   49.7491 H       1  ZINC000746432885    0.1900
     42 H42       -14.7505    1.0174   48.1201 H       1  ZINC000746432885    0.1300
     43 H43       -13.1687    0.2755   47.7799 H       1  ZINC000746432885    0.1500
     44 H44       -13.7346    0.7276   52.8131 H       1  ZINC000746432885    0.2100
     45 H45        -9.9089   -4.9459   58.5308 H       1  ZINC000746432885    0.1200
     46 H46        -8.5492   -3.9997   60.3512 H       1  ZINC000746432885    0.1300
     47 H47        -8.5580   -1.5730   60.7629 H       1  ZINC000746432885    0.1300
     48 H48       -10.4651    1.7241   60.6688 H       1  ZINC000746432885    0.1000
     49 H49       -11.5716    0.3300   60.6446 H       1  ZINC000746432885    0.0600
     50 H50        -9.9946    0.2003   61.4595 H       1  ZINC000746432885    0.0600
     51 H51       -11.2900   -1.0402   57.5199 H       1  ZINC000746432885    0.1400
     52 H52       -13.0527   -2.4856   58.7020 H       1  ZINC000746432885    0.1300
@<TRIPOS>BOND
     1     1     2    1
     2     1    32    1
     3     1    33    1
     4     1    34    1
     5     2     3    1
     6     3    31   ar
     7     3     4   ar
     8     4     5   ar
     9     4    35    1
    10     5     6   ar
    11     5    36    1
    12     6     7   ar
    13     6    37    1
    14     7     8    1
    15     7    31   ar
    16     8     9    1
    17     8    23    1
    18     8    38    1
    19     9    10   am
    20     9    39    1
    21    10    11    2
    22    10    12    1
    23    12    13    2
    24    12    14   am
    25    14    15    1
    26    14    40    1
    27    15    22    1
    28    15    16    2
    29    16    17    1
    30    16    41    1
    31    17    18    1
    32    17    21    1
    33    18    19    1
    34    18    42    1
    35    18    43    1
    36    19    20    3
    37    21    22    2
    38    22    44    1
    39    23    30   ar
    40    23    24   ar
    41    24    25   ar
    42    24    45    1
    43    25    26   ar
    44    25    46    1
    45    26    27   ar
    46    26    47    1
    47    27    28    1
    48    27    30   ar
    49    28    29    1
    50    29    48    1
    51    29    49    1
    52    29    50    1
    53    30    51    1
    54    31    52    1
@<TRIPOS>SUBSTRUCTURE
     1 ZINC000746432885        1 TEMP              0 ****  ****    0 ROOT


##########                                Name:    ZINC001127302705
##########                DOCK_Rotatable_Bonds:                   9
##########                         Heavy_Atoms:                  28
##########                    Molecular_Weight:             398.892
##########                DOCK_Rotatable_Bonds:                   9
##########                       Formal_Charge:          -0.0200002
##########                     HBond_Acceptors:                   7
##########                        HBond_Donors:                   1
##########                         Heavy_Atoms:                  28
##########                          Grid_Score:          -39.182629
##########                     Grid_vdw_energy:          -39.011024
##########                      Grid_es_energy:           -0.171604
##########           Internal_energy_repulsive:           27.920113

@<TRIPOS>MOLECULE
ZINC001127302705
 51 53 1 0 0
SMALL
USER_CHARGES


@<TRIPOS>ATOM
      1 C1        -11.1583   -3.1912   52.6459 C.3     1  ZINC001127302705   -0.1500
      2 C2        -11.4085   -2.8192   54.1088 C.3     1  ZINC001127302705   -0.1400
      3 C3        -11.3640   -1.2977   54.2629 C.3     1  ZINC001127302705    0.1800
      4 C4        -12.7064   -0.7022   53.8338 C.3     1  ZINC001127302705   -0.1600
      5 C5        -11.0920   -0.9409   55.7257 C.3     1  ZINC001127302705    0.0700
      6 O6        -11.6601   -1.9411   56.5734 O.3     1  ZINC001127302705   -0.2800
      7 C7        -10.9124   -2.3512   57.6290 C.ar    1  ZINC001127302705    0.3400
      8 N8        -10.2559   -1.4599   58.3521 N.ar    1  ZINC001127302705   -0.5300
      9 C9         -9.5178   -1.8155   59.3868 C.ar    1  ZINC001127302705    0.1400
     10 C10        -9.4041   -3.1414   59.7533 C.ar    1  ZINC001127302705   -0.2000
     11 C11       -10.0776   -4.1090   59.0202 C.ar    1  ZINC001127302705   -0.0300
     12 C12       -10.8485   -3.7039   57.9436 C.ar    1  ZINC001127302705   -0.1100
     13 Cl13      -11.7125   -4.8705   56.9916 Cl      1  ZINC001127302705   -0.0400
     14 N14       -10.2964   -0.7525   53.4207 N.am    1  ZINC001127302705   -0.7100
     15 C15        -9.9976    0.5606   53.4773 C.2     1  ZINC001127302705    0.6200
     16 O16       -10.6130    1.2923   54.2283 O.2     1  ZINC001127302705   -0.5200
     17 C17        -8.9225    1.1106   52.6269 C.2     1  ZINC001127302705   -0.0200
     18 N18        -8.1711    0.4371   51.7787 N.2     1  ZINC001127302705   -0.2500
     19 N19        -7.3361    1.2274   51.2055 N.pl3   1  ZINC001127302705   -0.2800
     20 C20        -6.3478    0.8189   50.2043 C.3     1  ZINC001127302705    0.1600
     21 C21        -5.0688    1.5866   50.4188 C.ar    1  ZINC001127302705   -0.1200
     22 C22        -4.2682    1.9112   49.3397 C.ar    1  ZINC001127302705   -0.1000
     23 C23        -3.0950    2.6152   49.5365 C.ar    1  ZINC001127302705   -0.1200
     24 C24        -2.7226    2.9952   50.8124 C.ar    1  ZINC001127302705   -0.1100
     25 C25        -3.5237    2.6714   51.8915 C.ar    1  ZINC001127302705   -0.1200
     26 C26        -4.6991    1.9710   51.6941 C.ar    1  ZINC001127302705   -0.0800
     27 C27        -7.5007    2.4889   51.6584 C.2     1  ZINC001127302705   -0.0200
     28 C28        -8.5073    2.4619   52.5632 C.2     1  ZINC001127302705   -0.1800
     29 H29       -10.1789   -2.8235   52.3399 H       1  ZINC001127302705    0.0500
     30 H30       -11.1901   -4.2752   52.5362 H       1  ZINC001127302705    0.0600
     31 H31       -11.9279   -2.7399   52.0196 H       1  ZINC001127302705    0.0500
     32 H32       -12.3879   -3.1869   54.4148 H       1  ZINC001127302705    0.0900
     33 H33       -10.6390   -3.2705   54.7352 H       1  ZINC001127302705    0.0800
     34 H34       -13.5008   -1.1078   54.4605 H       1  ZINC001127302705    0.0700
     35 H35       -12.6748    0.3818   53.9436 H       1  ZINC001127302705    0.0500
     36 H36       -12.9002   -0.9563   52.7917 H       1  ZINC001127302705    0.0800
     37 H37       -10.0161   -0.8906   55.8934 H       1  ZINC001127302705    0.0800
     38 H38       -11.5407    0.0260   55.9533 H       1  ZINC001127302705    0.0700
     39 H39        -8.9957   -1.0590   59.9541 H       1  ZINC001127302705    0.1700
     40 H40        -8.7973   -3.4232   60.6012 H       1  ZINC001127302705    0.1500
     41 H41       -10.0054   -5.1533   59.2860 H       1  ZINC001127302705    0.1500
     42 H42        -9.8046   -1.3364   52.8224 H       1  ZINC001127302705    0.4100
     43 H43        -6.1515   -0.2487   50.3019 H       1  ZINC001127302705    0.1000
     44 H44        -6.7337    1.0277   49.2065 H       1  ZINC001127302705    0.1100
     45 H45        -4.5591    1.6144   48.3429 H       1  ZINC001127302705    0.1200
     46 H46        -2.4691    2.8683   48.6934 H       1  ZINC001127302705    0.1300
     47 H47        -1.8057    3.5447   50.9663 H       1  ZINC001127302705    0.1200
     48 H48        -3.2327    2.9679   52.8883 H       1  ZINC001127302705    0.1300
     49 H49        -5.3249    1.7180   52.5371 H       1  ZINC001127302705    0.1300
     50 H50        -6.9376    3.3581   51.3523 H       1  ZINC001127302705    0.1800
     51 H51        -8.9048    3.2950   53.1238 H       1  ZINC001127302705    0.1600
@<TRIPOS>BOND
     1     1     2    1
     2     1    29    1
     3     1    30    1
     4     1    31    1
     5     2     3    1
     6     2    32    1
     7     2    33    1
     8     3     4    1
     9     3     5    1
    10     3    14    1
    11     4    34    1
    12     4    35    1
    13     4    36    1
    14     5     6    1
    15     5    37    1
    16     5    38    1
    17     6     7    1
    18     7    12   ar
    19     7     8   ar
    20     8     9   ar
    21     9    10   ar
    22     9    39    1
    23    10    11   ar
    24    10    40    1
    25    11    12   ar
    26    11    41    1
    27    12    13    1
    28    14    15   am
    29    14    42    1
    30    15    16    2
    31    15    17    1
    32    17    28    1
    33    17    18    2
    34    18    19    1
    35    19    20    1
    36    19    27    1
    37    20    21    1
    38    20    43    1
    39    20    44    1
    40    21    26   ar
    41    21    22   ar
    42    22    23   ar
    43    22    45    1
    44    23    24   ar
    45    23    46    1
    46    24    25   ar
    47    24    47    1
    48    25    26   ar
    49    25    48    1
    50    26    49    1
    51    27    28    2
    52    27    50    1
    53    28    51    1
@<TRIPOS>SUBSTRUCTURE
     1 ZINC001127302705        1 TEMP              0 ****  ****    0 ROOT


##########                                Name:    ZINC000432253027
##########                DOCK_Rotatable_Bonds:                   8
##########                         Heavy_Atoms:                  26
##########                    Molecular_Weight:             401.436
##########                DOCK_Rotatable_Bonds:                   8
##########                       Formal_Charge:         1.19209e-07
##########                     HBond_Acceptors:                  11
##########                        HBond_Donors:                   0
##########                         Heavy_Atoms:                  26
##########                          Grid_Score:          -39.049118
##########                     Grid_vdw_energy:          -38.357815
##########                      Grid_es_energy:           -0.691303
##########           Internal_energy_repulsive:            6.391114

@<TRIPOS>MOLECULE
ZINC000432253027
 40 42 1 0 0
SMALL
USER_CHARGES


@<TRIPOS>ATOM
      1 C1        -14.6671   -2.7986   59.5613 C.3     1  ZINC000432253027    0.0300
      2 O2        -13.5666   -2.3677   58.7579 O.3     1  ZINC000432253027   -0.3100
      3 C3        -12.3531   -2.9132   59.0308 C.ar    1  ZINC000432253027    0.1500
      4 C4        -11.6217   -2.4720   60.1213 C.ar    1  ZINC000432253027   -0.2100
      5 C5        -10.3865   -3.0276   60.3979 C.ar    1  ZINC000432253027   -0.0600
      6 C6         -9.8725   -4.0267   59.5899 C.ar    1  ZINC000432253027   -0.1600
      7 C7        -10.5888   -4.4772   58.5001 C.ar    1  ZINC000432253027   -0.0300
      8 C8        -11.8389   -3.9282   58.2143 C.ar    1  ZINC000432253027   -0.0600
      9 C9        -12.6111   -4.4062   57.0484 C.2     1  ZINC000432253027    0.1200
     10 N10       -12.3388   -4.1431   55.8021 N.2     1  ZINC000432253027   -0.4600
     11 C11       -13.1389   -4.6565   54.8954 C.2     1  ZINC000432253027    0.0800
     12 C12       -12.9298   -4.4257   53.4209 C.3     1  ZINC000432253027   -0.0200
     13 S13       -11.2296   -3.8635   53.1319 S.3     1  ZINC000432253027   -0.1700
     14 C14       -11.4613   -2.3294   52.1918 C.3     1  ZINC000432253027   -0.0300
     15 C15       -10.1741   -1.5457   52.1841 C.2     1  ZINC000432253027    0.2100
     16 N16        -9.0375   -1.9130   51.6446 N.2     1  ZINC000432253027   -0.2700
     17 N17        -8.1788   -0.9743   51.8482 N.2     1  ZINC000432253027   -0.0500
     18 N18        -8.7380   -0.0178   52.5036 N.2     1  ZINC000432253027   -0.0700
     19 N19        -9.9702   -0.3302   52.7251 N.pl3   1  ZINC000432253027   -0.3100
     20 C20       -10.9587    0.4813   53.4394 C.3     1  ZINC000432253027    0.0700
     21 C21       -10.8320    0.2322   54.9436 C.3     1  ZINC000432253027    0.4300
     22 F22       -11.8987    0.8455   55.6093 F       1  ZINC000432253027   -0.1500
     23 F23       -10.8567   -1.1444   55.1921 F       1  ZINC000432253027   -0.1700
     24 F24        -9.6246    0.7678   55.4050 F       1  ZINC000432253027   -0.1700
     25 C25       -14.1496   -5.3966   55.3616 C.2     1  ZINC000432253027   -0.2500
     26 S26       -14.0432   -5.4297   57.1206 S.3     1  ZINC000432253027    0.1600
     27 H27       -15.5742   -2.2870   59.2394 H       1  ZINC000432253027    0.1000
     28 H28       -14.7983   -3.8750   59.4505 H       1  ZINC000432253027    0.0600
     29 H29       -14.4682   -2.5625   60.6067 H       1  ZINC000432253027    0.0600
     30 H30       -12.0168   -1.6926   60.7559 H       1  ZINC000432253027    0.1400
     31 H31        -9.8194   -2.6800   61.2487 H       1  ZINC000432253027    0.1300
     32 H32        -8.9067   -4.4554   59.8132 H       1  ZINC000432253027    0.1300
     33 H33       -10.1841   -5.2568   57.8717 H       1  ZINC000432253027    0.1400
     34 H34       -13.1019   -5.3561   52.8796 H       1  ZINC000432253027    0.1000
     35 H35       -13.6284   -3.6664   53.0693 H       1  ZINC000432253027    0.1100
     36 H36       -11.7461   -2.5704   51.1677 H       1  ZINC000432253027    0.1100
     37 H37       -12.2467   -1.7336   52.6567 H       1  ZINC000432253027    0.1300
     38 H38       -10.7825    1.5364   53.2297 H       1  ZINC000432253027    0.1500
     39 H39       -11.9607    0.2076   53.1089 H       1  ZINC000432253027    0.1600
     40 H40       -14.8999   -5.8921   54.7634 H       1  ZINC000432253027    0.1800
@<TRIPOS>BOND
     1     1     2    1
     2     1    27    1
     3     1    28    1
     4     1    29    1
     5     2     3    1
     6     3     8   ar
     7     3     4   ar
     8     4     5   ar
     9     4    30    1
    10     5     6   ar
    11     5    31    1
    12     6     7   ar
    13     6    32    1
    14     7     8   ar
    15     7    33    1
    16     8     9    1
    17     9    26    1
    18     9    10    2
    19    10    11    1
    20    11    12    1
    21    11    25    2
    22    12    13    1
    23    12    34    1
    24    12    35    1
    25    13    14    1
    26    14    15    1
    27    14    36    1
    28    14    37    1
    29    15    19    1
    30    15    16    2
    31    16    17    1
    32    17    18    2
    33    18    19    1
    34    19    20    1
    35    20    21    1
    36    20    38    1
    37    20    39    1
    38    21    22    1
    39    21    23    1
    40    21    24    1
    41    25    26    1
    42    25    40    1
@<TRIPOS>SUBSTRUCTURE
     1 ZINC000432253027        1 TEMP              0 ****  ****    0 ROOT


##########                                Name:    ZINC000461678839
##########                DOCK_Rotatable_Bonds:                   6
##########                         Heavy_Atoms:                  28
##########                    Molecular_Weight:             404.939
##########                DOCK_Rotatable_Bonds:                   6
##########                       Formal_Charge:          -0.0200003
##########                     HBond_Acceptors:                   7
##########                        HBond_Donors:                   0
##########                         Heavy_Atoms:                  28
##########                          Grid_Score:          -39.019081
##########                     Grid_vdw_energy:          -38.354969
##########                      Grid_es_energy:           -0.664113
##########           Internal_energy_repulsive:           14.547789

@<TRIPOS>MOLECULE
ZINC000461678839
 57 60 1 0 0
SMALL
USER_CHARGES


@<TRIPOS>ATOM
      1 C1        -14.9871   -2.4840   52.8750 C.3     1  ZINC000461678839   -0.1500
      2 C2        -14.1362   -3.5039   53.6344 C.3     1  ZINC000461678839   -0.0900
      3 H3        -13.6971   -4.2016   52.9214 H       1  ZINC000461678839    0.0700
      4 C4        -15.0408   -4.2860   54.6131 C.3     1  ZINC000461678839   -0.1100
      5 C5        -14.3326   -5.5481   55.0276 C.3     1  ZINC000461678839   -0.1200
      6 C6        -13.4978   -5.3742   56.3090 C.3     1  ZINC000461678839    0.0600
      7 N7        -12.7399   -4.1042   56.3468 N.3     1  ZINC000461678839   -0.4600
      8 C8        -11.8062   -4.1133   57.3709 C.2     1  ZINC000461678839    0.3700
      9 N9        -10.8022   -4.9478   57.5037 N.2     1  ZINC000461678839   -0.3100
     10 N10       -10.1386   -4.6665   58.5679 N.2     1  ZINC000461678839   -0.2500
     11 C11       -10.6754   -3.6447   59.1722 C.2     1  ZINC000461678839    0.1700
     12 C12       -10.1933   -3.0085   60.4505 C.3     1  ZINC000461678839    0.1500
     13 O13       -10.2486   -1.5861   60.3250 O.3     1  ZINC000461678839   -0.3100
     14 C14       -10.0410   -0.8585   61.4541 C.ar    1  ZINC000461678839    0.1400
     15 C15        -9.3857   -1.4275   62.5362 C.ar    1  ZINC000461678839   -0.2000
     16 C16        -9.1757   -0.6864   63.6830 C.ar    1  ZINC000461678839   -0.0700
     17 C17        -9.6189    0.6224   63.7528 C.ar    1  ZINC000461678839   -0.0700
     18 Cl18       -9.3543    1.5516   65.1952 Cl      1  ZINC000461678839   -0.0700
     19 C19       -10.2724    1.1919   62.6744 C.ar    1  ZINC000461678839   -0.0700
     20 C20       -10.4792    0.4559   61.5238 C.ar    1  ZINC000461678839   -0.1400
     21 N21       -11.7538   -3.2526   58.4284 N.pl3   1  ZINC000461678839   -0.4600
     22 C22       -12.6684   -2.1440   58.7127 C.3     1  ZINC000461678839    0.1200
     23 C23       -14.0482   -2.6999   59.0703 C.3     1  ZINC000461678839   -0.1400
     24 H24       -14.2468   -3.6140   58.5106 H       1  ZINC000461678839    0.0900
     25 C25       -15.1462   -1.6448   58.7919 C.3     1  ZINC000461678839   -0.1500
     26 C26       -16.0827   -1.8206   60.0144 C.3     1  ZINC000461678839    0.0500
     27 O27       -15.1711   -2.0897   61.1011 O.3     1  ZINC000461678839   -0.3700
     28 C28       -14.1478   -2.9626   60.5854 C.3     1  ZINC000461678839    0.0400
     29 C29       -12.1236   -3.7602   55.0881 C.3     1  ZINC000461678839    0.0700
     30 C30       -13.0660   -2.8030   54.3354 C.3     1  ZINC000461678839   -0.1100
     31 H31       -14.3591   -1.9408   52.1688 H       1  ZINC000461678839    0.0500
     32 H32       -15.7784   -3.0024   52.3333 H       1  ZINC000461678839    0.0500
     33 H33       -15.4301   -1.7823   53.5817 H       1  ZINC000461678839    0.0600
     34 H34       -15.2418   -3.6743   55.4927 H       1  ZINC000461678839    0.0700
     35 H35       -15.9793   -4.5391   54.1200 H       1  ZINC000461678839    0.0700
     36 H36       -15.0750   -6.3283   55.1953 H       1  ZINC000461678839    0.0800
     37 H37       -13.6730   -5.8623   54.2187 H       1  ZINC000461678839    0.0700
     38 H38       -14.1663   -5.4082   57.1692 H       1  ZINC000461678839    0.0700
     39 H39       -12.7943   -6.2035   56.3832 H       1  ZINC000461678839    0.0500
     40 H40       -10.8298   -3.3254   61.2766 H       1  ZINC000461678839    0.0800
     41 H41        -9.1659   -3.3165   60.6445 H       1  ZINC000461678839    0.1000
     42 H42        -9.0401   -2.4493   62.4825 H       1  ZINC000461678839    0.1400
     43 H43        -8.6654   -1.1290   64.5258 H       1  ZINC000461678839    0.1400
     44 H44       -10.6173    2.2138   62.7305 H       1  ZINC000461678839    0.1400
     45 H45       -10.9893    0.9006   60.6821 H       1  ZINC000461678839    0.1400
     46 H46       -12.2835   -1.5609   59.5494 H       1  ZINC000461678839    0.1100
     47 H47       -12.7505   -1.5061   57.8327 H       1  ZINC000461678839    0.1000
     48 H48       -14.7233   -0.6405   58.7671 H       1  ZINC000461678839    0.0800
     49 H49       -15.6726   -1.8667   57.8637 H       1  ZINC000461678839    0.0900
     50 H50       -16.6444   -0.9055   60.2023 H       1  ZINC000461678839    0.1000
     51 H51       -16.7582   -2.6625   59.8626 H       1  ZINC000461678839    0.0600
     52 H52       -14.4211   -4.0020   60.7671 H       1  ZINC000461678839    0.0500
     53 H53       -13.1941   -2.7390   61.0635 H       1  ZINC000461678839    0.1100
     54 H54       -11.1679   -3.2683   55.2694 H       1  ZINC000461678839    0.0900
     55 H55       -11.9666   -4.6625   54.4972 H       1  ZINC000461678839    0.0600
     56 H56       -12.4844   -2.2351   53.6092 H       1  ZINC000461678839    0.0700
     57 H57       -13.5072   -2.1086   55.0504 H       1  ZINC000461678839    0.0700
@<TRIPOS>BOND
     1     1     2    1
     2     1    31    1
     3     1    32    1
     4     1    33    1
     5     2     3    1
     6     2    30    1
     7     2     4    1
     8     4     5    1
     9     4    34    1
    10     4    35    1
    11     5     6    1
    12     5    36    1
    13     5    37    1
    14     6     7    1
    15     6    38    1
    16     6    39    1
    17     7     8    1
    18     7    29    1
    19     8    21    1
    20     8     9    2
    21     9    10    1
    22    10    11    2
    23    11    12    1
    24    11    21    1
    25    12    13    1
    26    12    40    1
    27    12    41    1
    28    13    14    1
    29    14    20   ar
    30    14    15   ar
    31    15    16   ar
    32    15    42    1
    33    16    17   ar
    34    16    43    1
    35    17    18    1
    36    17    19   ar
    37    19    20   ar
    38    19    44    1
    39    20    45    1
    40    21    22    1
    41    22    23    1
    42    22    46    1
    43    22    47    1
    44    23    24    1
    45    23    28    1
    46    23    25    1
    47    25    26    1
    48    25    48    1
    49    25    49    1
    50    26    27    1
    51    26    50    1
    52    26    51    1
    53    27    28    1
    54    28    52    1
    55    28    53    1
    56    29    30    1
    57    29    54    1
    58    29    55    1
    59    30    56    1
    60    30    57    1
@<TRIPOS>SUBSTRUCTURE
     1 ZINC000461678839        1 TEMP              0 ****  ****    0 ROOT


##########                                Name:    ZINC000033150761
##########                DOCK_Rotatable_Bonds:                   7
##########                         Heavy_Atoms:                  29
##########                    Molecular_Weight:             413.407
##########                DOCK_Rotatable_Bonds:                   7
##########                       Formal_Charge:          0.00999993
##########                     HBond_Acceptors:                  10
##########                        HBond_Donors:                   1
##########                         Heavy_Atoms:                  29
##########                          Grid_Score:          -38.978882
##########                     Grid_vdw_energy:          -38.153530
##########                      Grid_es_energy:           -0.825351
##########           Internal_energy_repulsive:            8.101958

@<TRIPOS>MOLECULE
ZINC000033150761
 42 45 1 0 0
SMALL
USER_CHARGES


@<TRIPOS>ATOM
      1 O1        -13.7333   -3.9942   58.1503 O.2     1  ZINC000033150761   -0.5000
      2 C2        -13.1559   -4.7639   57.4119 C.2     1  ZINC000033150761    0.5200
      3 C3        -13.9386   -5.7831   56.6247 C.3     1  ZINC000033150761   -0.1300
      4 C4        -14.5237   -5.1225   55.3747 C.3     1  ZINC000033150761   -0.0100
      5 C5        -13.4078   -4.5448   54.5428 C.2     1  ZINC000033150761    0.1800
      6 N6        -12.9226   -3.3312   54.6272 N.2     1  ZINC000033150761   -0.4400
      7 C7        -11.9456   -3.2651   53.6950 C.2     1  ZINC000033150761    0.2200
      8 C8        -11.0896   -2.0890   53.3971 C.ar    1  ZINC000033150761    0.1900
      9 C9        -11.2515   -0.9149   54.1274 C.ar    1  ZINC000033150761   -0.1300
     10 C10       -10.4459    0.1741   53.8384 C.ar    1  ZINC000033150761   -0.0700
     11 C11        -9.5046    0.0510   52.8273 C.ar    1  ZINC000033150761   -0.1500
     12 C12        -9.3981   -1.1463   52.1420 C.ar    1  ZINC000033150761    0.1100
     13 N13       -10.1735   -2.1677   52.4412 N.ar    1  ZINC000033150761   -0.4500
     14 N14       -11.8952   -4.4306   53.1051 N.2     1  ZINC000033150761   -0.3600
     15 O15       -12.7232   -5.1764   53.5841 O.3     1  ZINC000033150761    0.0900
     16 N16       -11.8149   -4.7040   57.2911 N.am    1  ZINC000033150761   -0.6200
     17 C17       -11.0933   -3.7642   58.0170 C.2     1  ZINC000033150761    0.2700
     18 N18       -11.0246   -2.4984   57.7443 N.2     1  ZINC000033150761   -0.5000
     19 C19       -10.2855   -1.7485   58.5496 C.2     1  ZINC000033150761    0.1200
     20 C20       -10.1254   -0.2877   58.3475 C.ar    1  ZINC000033150761    0.0000
     21 C21       -10.5944    0.6060   59.3084 C.ar    1  ZINC000033150761   -0.0800
     22 C22       -10.4435    1.9647   59.1174 C.ar    1  ZINC000033150761   -0.1200
     23 C23        -9.8270    2.4415   57.9730 C.ar    1  ZINC000033150761    0.0700
     24 F24        -9.6816    3.7721   57.7906 F       1  ZINC000033150761   -0.1300
     25 C25        -9.3577    1.5560   57.0129 C.ar    1  ZINC000033150761    0.0700
     26 F26        -8.7564    2.0258   55.8981 F       1  ZINC000033150761   -0.1300
     27 C27        -9.5004    0.1945   57.1987 C.ar    1  ZINC000033150761   -0.1000
     28 C28        -9.6909   -2.4034   59.5628 C.2     1  ZINC000033150761   -0.2800
     29 S29       -10.1357   -4.1052   59.4549 S.3     1  ZINC000033150761    0.2200
     30 H30       -13.2787   -6.5990   56.3293 H       1  ZINC000033150761    0.1200
     31 H31       -14.7477   -6.1751   57.2410 H       1  ZINC000033150761    0.1200
     32 H32       -15.0650   -5.8665   54.7903 H       1  ZINC000033150761    0.1300
     33 H33       -15.2064   -4.3260   55.6706 H       1  ZINC000033150761    0.1200
     34 H34       -11.9952   -0.8539   54.9082 H       1  ZINC000033150761    0.1400
     35 H35       -10.5486    1.0982   54.3877 H       1  ZINC000033150761    0.1500
     36 H36        -8.8612    0.8816   52.5772 H       1  ZINC000033150761    0.1400
     37 H37        -8.6663   -1.2458   51.3540 H       1  ZINC000033150761    0.1700
     38 H38       -11.3536   -5.3170   56.6975 H       1  ZINC000033150761    0.4300
     39 H39       -11.0758    0.2360   60.2014 H       1  ZINC000033150761    0.1400
     40 H40       -10.8073    2.6573   59.8619 H       1  ZINC000033150761    0.1500
     41 H41        -9.1351   -0.4947   56.4517 H       1  ZINC000033150761    0.1600
     42 H42        -9.0546   -1.9618   60.3153 H       1  ZINC000033150761    0.1800
@<TRIPOS>BOND
     1     1     2    2
     2     2     3    1
     3     2    16   am
     4     3     4    1
     5     3    30    1
     6     3    31    1
     7     4     5    1
     8     4    32    1
     9     4    33    1
    10     5    15    1
    11     5     6    2
    12     6     7    1
    13     7     8    1
    14     7    14    2
    15     8    13   ar
    16     8     9   ar
    17     9    10   ar
    18     9    34    1
    19    10    11   ar
    20    10    35    1
    21    11    12   ar
    22    11    36    1
    23    12    13   ar
    24    12    37    1
    25    14    15    1
    26    16    17    1
    27    16    38    1
    28    17    29    1
    29    17    18    2
    30    18    19    1
    31    19    20    1
    32    19    28    2
    33    20    27   ar
    34    20    21   ar
    35    21    22   ar
    36    21    39    1
    37    22    23   ar
    38    22    40    1
    39    23    24    1
    40    23    25   ar
    41    25    26    1
    42    25    27   ar
    43    27    41    1
    44    28    29    1
    45    28    42    1
@<TRIPOS>SUBSTRUCTURE
     1 ZINC000033150761        1 TEMP              0 ****  ****    0 ROOT


##########                                Name:    ZINC000546142192
##########                DOCK_Rotatable_Bonds:                  12
##########                         Heavy_Atoms:                  31
##########                    Molecular_Weight:             420.511
##########                DOCK_Rotatable_Bonds:                  12
##########                       Formal_Charge:          -0.0599997
##########                     HBond_Acceptors:                   7
##########                        HBond_Donors:                   2
##########                         Heavy_Atoms:                  31
##########                          Grid_Score:          -38.963718
##########                     Grid_vdw_energy:          -37.673180
##########                      Grid_es_energy:           -1.290540
##########           Internal_energy_repulsive:           14.814695

@<TRIPOS>MOLECULE
ZINC000546142192
 59 61 1 0 0
SMALL
USER_CHARGES


@<TRIPOS>ATOM
      1 C1         -1.4705   -0.8168   42.7337 C.3     1  ZINC000546142192    0.0300
      2 O2         -1.4591   -0.4652   44.1425 O.3     1  ZINC000546142192   -0.3600
      3 C3         -0.8936    0.7063   44.4736 C.2     1  ZINC000546142192    0.4600
      4 O4         -0.6164    1.5079   43.6130 O.2     1  ZINC000546142192   -0.5100
      5 C5         -0.6047    1.0217   45.9186 C.3     1  ZINC000546142192   -0.0800
      6 H6         -1.0052    0.2292   46.5506 H       1  ZINC000546142192    0.1100
      7 C7          0.9078    1.1239   46.1257 C.3     1  ZINC000546142192   -0.1500
      8 C8         -1.2617    2.3523   46.2913 C.3     1  ZINC000546142192   -0.0600
      9 C9         -2.0233    2.1923   47.5819 C.ar    1  ZINC000546142192   -0.1000
     10 C10        -1.3716    2.3480   48.7915 C.ar    1  ZINC000546142192   -0.0900
     11 C11        -2.0668    2.2025   49.9760 C.ar    1  ZINC000546142192   -0.1200
     12 C12        -3.4218    1.8995   49.9512 C.ar    1  ZINC000546142192    0.1600
     13 N13        -4.1293    1.7519   51.1496 N.am    1  ZINC000546142192   -0.6900
     14 C14        -4.3439    2.8211   51.9415 C.2     1  ZINC000546142192    0.7100
     15 O15        -3.9228    3.9139   51.6148 O.2     1  ZINC000546142192   -0.5700
     16 N16        -5.0253    2.6789   53.0957 N.am    1  ZINC000546142192   -0.7400
     17 C17        -5.2571    3.8408   53.9573 C.3     1  ZINC000546142192    0.2300
     18 C18        -5.4557    3.3806   55.3786 C.2     1  ZINC000546142192    0.1800
     19 N19        -6.6060    3.1461   55.9483 N.2     1  ZINC000546142192   -0.4700
     20 C20        -6.4008    2.7535   57.2143 C.2     1  ZINC000546142192   -0.0300
     21 C21        -5.0727    2.7444   57.4375 C.2     1  ZINC000546142192   -0.0400
     22 N22        -4.4725    3.1370   56.2717 N.pl3   1  ZINC000546142192   -0.4500
     23 C23        -3.0327    3.2754   56.0389 C.3     1  ZINC000546142192    0.1100
     24 C24        -2.2783    2.2472   56.8840 C.3     1  ZINC000546142192   -0.0900
     25 C25        -0.7954    2.4167   56.6759 C.ar    1  ZINC000546142192   -0.0900
     26 C26        -0.3151    2.8691   55.4611 C.ar    1  ZINC000546142192   -0.1100
     27 C27         1.0452    3.0245   55.2703 C.ar    1  ZINC000546142192   -0.1200
     28 C28         1.9251    2.7280   56.2944 C.ar    1  ZINC000546142192   -0.1200
     29 C29         1.4448    2.2765   57.5094 C.ar    1  ZINC000546142192   -0.1200
     30 C30         0.0842    2.1252   57.7017 C.ar    1  ZINC000546142192   -0.1100
     31 C31        -4.0734    1.7439   48.7348 C.ar    1  ZINC000546142192   -0.1500
     32 C32        -3.3736    1.8958   47.5539 C.ar    1  ZINC000546142192   -0.0900
     33 H33        -0.4464   -0.8712   42.3646 H       1  ZINC000546142192    0.0600
     34 H34        -1.9551   -1.7845   42.6047 H       1  ZINC000546142192    0.1000
     35 H35        -2.0185   -0.0586   42.1744 H       1  ZINC000546142192    0.0600
     36 H36         1.3083    1.9166   45.4937 H       1  ZINC000546142192    0.0600
     37 H37         1.1167    1.3522   47.1709 H       1  ZINC000546142192    0.0800
     38 H38         1.3757    0.1761   45.8602 H       1  ZINC000546142192    0.0700
     39 H39        -0.4928    3.1149   46.4154 H       1  ZINC000546142192    0.0800
     40 H40        -1.9476    2.6533   45.4995 H       1  ZINC000546142192    0.0800
     41 H41        -0.3177    2.5833   48.8100 H       1  ZINC000546142192    0.1300
     42 H42        -1.5572    2.3238   50.9203 H       1  ZINC000546142192    0.1400
     43 H43        -4.4652    0.8800   51.4103 H       1  ZINC000546142192    0.4100
     44 H44        -5.3623    1.8074   53.3557 H       1  ZINC000546142192    0.4000
     45 H45        -4.3958    4.5072   53.9082 H       1  ZINC000546142192    0.0800
     46 H46        -6.1471    4.3719   53.6196 H       1  ZINC000546142192    0.1000
     47 H47        -7.1664    2.4908   57.9294 H       1  ZINC000546142192    0.1700
     48 H48        -4.5765    2.4751   58.3581 H       1  ZINC000546142192    0.1800
     49 H49        -2.8174    3.1068   54.9837 H       1  ZINC000546142192    0.1000
     50 H50        -2.7143    4.2796   56.3186 H       1  ZINC000546142192    0.0900
     51 H51        -2.5169    2.3970   57.9370 H       1  ZINC000546142192    0.0800
     52 H52        -2.5748    1.2422   56.5837 H       1  ZINC000546142192    0.0800
     53 H53        -1.0026    3.1007   54.6611 H       1  ZINC000546142192    0.1200
     54 H54         1.4204    3.3773   54.3210 H       1  ZINC000546142192    0.1200
     55 H55         2.9879    2.8488   56.1450 H       1  ZINC000546142192    0.1200
     56 H56         2.1323    2.0446   58.3093 H       1  ZINC000546142192    0.1200
     57 H57        -0.2911    1.7724   58.6509 H       1  ZINC000546142192    0.1200
     58 H58        -5.1272    1.5083   48.7124 H       1  ZINC000546142192    0.1300
     59 H59        -3.8800    1.7753   46.6075 H       1  ZINC000546142192    0.1300
@<TRIPOS>BOND
     1     1     2    1
     2     1    33    1
     3     1    34    1
     4     1    35    1
     5     2     3    1
     6     3     4    2
     7     3     5    1
     8     5     6    1
     9     5     7    1
    10     5     8    1
    11     7    36    1
    12     7    37    1
    13     7    38    1
    14     8     9    1
    15     8    39    1
    16     8    40    1
    17     9    32   ar
    18     9    10   ar
    19    10    11   ar
    20    10    41    1
    21    11    12   ar
    22    11    42    1
    23    12    13    1
    24    12    31   ar
    25    13    14   am
    26    13    43    1
    27    14    15    2
    28    14    16   am
    29    16    17    1
    30    16    44    1
    31    17    18    1
    32    17    45    1
    33    17    46    1
    34    18    22    1
    35    18    19    2
    36    19    20    1
    37    20    21    2
    38    20    47    1
    39    21    22    1
    40    21    48    1
    41    22    23    1
    42    23    24    1
    43    23    49    1
    44    23    50    1
    45    24    25    1
    46    24    51    1
    47    24    52    1
    48    25    30   ar
    49    25    26   ar
    50    26    27   ar
    51    26    53    1
    52    27    28   ar
    53    27    54    1
    54    28    29   ar
    55    28    55    1
    56    29    30   ar
    57    29    56    1
    58    30    57    1
    59    31    32   ar
    60    31    58    1
    61    32    59    1
@<TRIPOS>SUBSTRUCTURE
     1 ZINC000546142192        1 TEMP              0 ****  ****    0 ROOT


##########                                Name:    ZINC000770850676
##########                DOCK_Rotatable_Bonds:                  13
##########                         Heavy_Atoms:                  30
##########                    Molecular_Weight:             412.486
##########                DOCK_Rotatable_Bonds:                  13
##########                       Formal_Charge:          -0.0299994
##########                     HBond_Acceptors:                   7
##########                        HBond_Donors:                   3
##########                         Heavy_Atoms:                  30
##########                          Grid_Score:          -38.869217
##########                     Grid_vdw_energy:          -38.309032
##########                      Grid_es_energy:           -0.560185
##########           Internal_energy_repulsive:           17.528111

@<TRIPOS>MOLECULE
ZINC000770850676
 58 60 1 0 0
SMALL
USER_CHARGES


@<TRIPOS>ATOM
      1 O1        -13.4164   -1.6407   56.4339 O.2     1  ZINC000770850676   -0.5300
      2 C2        -13.3881   -2.8531   56.4213 C.2     1  ZINC000770850676    0.5100
      3 N3        -13.0252   -3.5071   55.3001 N.am    1  ZINC000770850676   -0.7000
      4 C4        -12.6708   -2.7536   54.0947 C.3     1  ZINC000770850676    0.1600
      5 H5        -13.3618   -1.9197   53.9713 H       1  ZINC000770850676    0.1000
      6 C6        -12.7577   -3.6727   52.8747 C.3     1  ZINC000770850676    0.0600
      7 O7        -12.0628   -4.8915   53.1461 O.3     1  ZINC000770850676   -0.5700
      8 C8        -11.2440   -2.2178   54.2291 C.3     1  ZINC000770850676   -0.1500
      9 C9        -11.1898   -0.7772   53.7169 C.3     1  ZINC000770850676    0.1500
     10 H10       -12.0218   -0.6026   53.0348 H       1  ZINC000770850676    0.1100
     11 O11       -11.2819    0.1249   54.8214 O.3     1  ZINC000770850676   -0.5400
     12 C12        -9.8888   -0.5509   52.9908 C.ar    1  ZINC000770850676   -0.1200
     13 C13        -9.1255    0.5668   53.2721 C.ar    1  ZINC000770850676   -0.1100
     14 C14        -7.9322    0.7744   52.6060 C.ar    1  ZINC000770850676   -0.1200
     15 C15        -7.5018   -0.1359   51.6589 C.ar    1  ZINC000770850676   -0.1200
     16 C16        -8.2647   -1.2540   51.3781 C.ar    1  ZINC000770850676   -0.1200
     17 C17        -9.4559   -1.4638   52.0473 C.ar    1  ZINC000770850676   -0.1100
     18 C18       -13.7526   -3.6283   57.6612 C.3     1  ZINC000770850676    0.1400
     19 H19       -13.7445   -4.6968   57.4459 H       1  ZINC000770850676    0.1000
     20 C20       -15.1519   -3.2028   58.1536 C.3     1  ZINC000770850676   -0.1200
     21 C21       -14.9928   -3.2056   59.6971 C.3     1  ZINC000770850676   -0.1300
     22 C22       -13.5338   -2.7110   59.8602 C.3     1  ZINC000770850676    0.1000
     23 N23       -12.7973   -3.3277   58.7376 N.am    1  ZINC000770850676   -0.5900
     24 C24       -11.4721   -3.5713   58.7069 C.2     1  ZINC000770850676    0.6700
     25 O25       -10.9712   -4.0843   57.7260 O.2     1  ZINC000770850676   -0.5600
     26 O26       -10.7033   -3.2460   59.7633 O.3     1  ZINC000770850676   -0.3600
     27 C27        -9.7250   -2.1913   59.5666 C.3     1  ZINC000770850676    0.1300
     28 C28        -9.9248   -1.1203   60.6078 C.ar    1  ZINC000770850676   -0.1000
     29 C29        -9.6959   -1.4019   61.9417 C.ar    1  ZINC000770850676   -0.0900
     30 C30        -9.8792   -0.4195   62.8968 C.ar    1  ZINC000770850676   -0.1200
     31 C31       -10.2909    0.8446   62.5180 C.ar    1  ZINC000770850676   -0.1100
     32 C32       -10.5189    1.1264   61.1840 C.ar    1  ZINC000770850676   -0.1200
     33 C33       -10.3315    0.1452   60.2284 C.ar    1  ZINC000770850676   -0.0900
     34 H34       -12.9987   -4.4767   55.2911 H       1  ZINC000770850676    0.4000
     35 H35       -13.8034   -3.8911   52.6580 H       1  ZINC000770850676    0.0500
     36 H36       -12.3039   -3.1794   52.0151 H       1  ZINC000770850676    0.0500
     37 H37       -11.8364   -5.3997   52.3552 H       1  ZINC000770850676    0.3800
     38 H38       -10.9439   -2.2425   55.2768 H       1  ZINC000770850676    0.0800
     39 H39       -10.5663   -2.8379   53.6424 H       1  ZINC000770850676    0.0900
     40 H40       -12.0324   -0.0456   55.4069 H       1  ZINC000770850676    0.3700
     41 H41        -9.4617    1.2779   54.0122 H       1  ZINC000770850676    0.1200
     42 H42        -7.3362    1.6479   52.8254 H       1  ZINC000770850676    0.1200
     43 H43        -6.5699    0.0266   51.1379 H       1  ZINC000770850676    0.1200
     44 H44        -7.9287   -1.9650   50.6379 H       1  ZINC000770850676    0.1200
     45 H45       -10.0520   -2.3374   51.8279 H       1  ZINC000770850676    0.1200
     46 H46       -15.4004   -2.2045   57.7934 H       1  ZINC000770850676    0.0800
     47 H47       -15.9065   -3.9253   57.8425 H       1  ZINC000770850676    0.1000
     48 H48       -15.6942   -2.5139   60.1634 H       1  ZINC000770850676    0.0900
     49 H49       -15.1117   -4.2113   60.1003 H       1  ZINC000770850676    0.0800
     50 H50       -13.4918   -1.6240   59.7914 H       1  ZINC000770850676    0.0700
     51 H51       -13.1232   -3.0479   60.8121 H       1  ZINC000770850676    0.0900
     52 H52        -8.7208   -2.6053   59.6592 H       1  ZINC000770850676    0.0800
     53 H53        -9.8501   -1.7603   58.5733 H       1  ZINC000770850676    0.0800
     54 H54        -9.3742   -2.3895   62.2376 H       1  ZINC000770850676    0.1200
     55 H55        -9.7010   -0.6396   63.9390 H       1  ZINC000770850676    0.1300
     56 H56       -10.4347    1.6119   63.2643 H       1  ZINC000770850676    0.1300
     57 H57       -10.8410    2.1139   60.8881 H       1  ZINC000770850676    0.1300
     58 H58       -10.5096    0.3654   59.1863 H       1  ZINC000770850676    0.1200
@<TRIPOS>BOND
     1     1     2    2
     2     2     3   am
     3     2    18    1
     4     3     4    1
     5     3    34    1
     6     4     5    1
     7     4     6    1
     8     4     8    1
     9     6     7    1
    10     6    35    1
    11     6    36    1
    12     7    37    1
    13     8     9    1
    14     8    38    1
    15     8    39    1
    16     9    10    1
    17     9    11    1
    18     9    12    1
    19    11    40    1
    20    12    17   ar
    21    12    13   ar
    22    13    14   ar
    23    13    41    1
    24    14    15   ar
    25    14    42    1
    26    15    16   ar
    27    15    43    1
    28    16    17   ar
    29    16    44    1
    30    17    45    1
    31    18    19    1
    32    18    23    1
    33    18    20    1
    34    20    21    1
    35    20    46    1
    36    20    47    1
    37    21    22    1
    38    21    48    1
    39    21    49    1
    40    22    23    1
    41    22    50    1
    42    22    51    1
    43    23    24   am
    44    24    25    2
    45    24    26    1
    46    26    27    1
    47    27    28    1
    48    27    52    1
    49    27    53    1
    50    28    33   ar
    51    28    29   ar
    52    29    30   ar
    53    29    54    1
    54    30    31   ar
    55    30    55    1
    56    31    32   ar
    57    31    56    1
    58    32    33   ar
    59    32    57    1
    60    33    58    1
@<TRIPOS>SUBSTRUCTURE
     1 ZINC000770850676        1 TEMP              0 ****  ****    0 ROOT


##########                                Name:    ZINC000508765459
##########                DOCK_Rotatable_Bonds:                  10
##########                         Heavy_Atoms:                  29
##########                    Molecular_Weight:               405.5
##########                DOCK_Rotatable_Bonds:                  10
##########                       Formal_Charge:         -6.4075e-07
##########                     HBond_Acceptors:                  10
##########                        HBond_Donors:                   1
##########                         Heavy_Atoms:                  29
##########                          Grid_Score:          -38.830849
##########                     Grid_vdw_energy:          -36.810440
##########                      Grid_es_energy:           -2.020409
##########           Internal_energy_repulsive:           20.210255

@<TRIPOS>MOLECULE
ZINC000508765459
 60 62 1 0 0
SMALL
USER_CHARGES


@<TRIPOS>ATOM
      1 C1        -11.0611    1.9589   64.0510 C.3     1  ZINC000508765459    0.0300
      2 O2        -11.3065    0.5586   63.9053 O.3     1  ZINC000508765459   -0.3900
      3 C3        -11.4023    0.1236   62.5475 C.3     1  ZINC000508765459    0.0500
      4 C4        -10.0008    0.0354   61.9401 C.3     1  ZINC000508765459    0.1100
      5 N5         -9.9999   -0.9489   60.8551 N.am    1  ZINC000508765459   -0.5900
      6 C6        -10.6219   -0.5676   59.5944 C.3     1  ZINC000508765459    0.1000
      7 C7        -10.0877   -1.4243   58.4449 C.3     1  ZINC000508765459    0.1200
      8 N8        -10.1045   -2.8328   58.8750 N.am    1  ZINC000508765459   -0.6400
      9 C9        -10.8475   -3.7539   58.2302 C.2     1  ZINC000508765459    0.7100
     10 O10       -10.8442   -4.9099   58.6071 O.2     1  ZINC000508765459   -0.5800
     11 N11       -11.5941   -3.3938   57.1675 N.am    1  ZINC000508765459   -0.7400
     12 C12       -12.4031   -4.3948   56.4676 C.3     1  ZINC000508765459    0.1400
     13 C13       -12.9399   -3.7969   55.1655 C.3     1  ZINC000508765459   -0.1400
     14 C14       -11.8175   -3.7455   54.1271 C.3     1  ZINC000508765459    0.0600
     15 N15       -12.2283   -2.8925   53.0040 N.3     1  ZINC000508765459   -0.5400
     16 C16       -11.9636   -1.4763   53.2938 C.3     1  ZINC000508765459    0.0500
     17 C17       -12.3303   -0.6310   52.0718 C.3     1  ZINC000508765459    0.0700
     18 N18       -13.7465   -0.8421   51.7406 N.3     1  ZINC000508765459   -0.4600
     19 C19       -14.1334   -0.0384   50.6822 C.ar    1  ZINC000508765459    0.4900
     20 N20       -14.6498    1.1559   50.9321 N.ar    1  ZINC000508765459   -0.5500
     21 C21       -15.0294    1.9488   49.9437 C.ar    1  ZINC000508765459    0.1700
     22 C22       -14.8810    1.5164   48.6352 C.ar    1  ZINC000508765459   -0.2600
     23 C23       -14.3372    0.2616   48.4095 C.ar    1  ZINC000508765459    0.1700
     24 N24       -13.9736   -0.4795   49.4431 N.ar    1  ZINC000508765459   -0.5300
     25 C25       -14.0112   -2.2582   51.4507 C.3     1  ZINC000508765459    0.0700
     26 C26       -13.6444   -3.1035   52.6727 C.3     1  ZINC000508765459    0.0600
     27 C27        -9.2774   -3.1931   60.0361 C.3     1  ZINC000508765459    0.1000
     28 C28        -9.4249   -2.1294   61.0892 C.2     1  ZINC000508765459    0.5100
     29 O29        -9.0093   -2.3587   62.2053 O.2     1  ZINC000508765459   -0.5400
     30 H30       -11.8739    2.5201   63.5901 H       1  ZINC000508765459    0.0400
     31 H31       -11.0018    2.2091   65.1103 H       1  ZINC000508765459    0.0900
     32 H32       -10.1204    2.2155   63.5639 H       1  ZINC000508765459    0.0400
     33 H33       -11.8757   -0.8576   62.5128 H       1  ZINC000508765459    0.0500
     34 H34       -12.0004    0.8359   61.9791 H       1  ZINC000508765459    0.0600
     35 H35        -9.7133    1.0103   61.5465 H       1  ZINC000508765459    0.1100
     36 H36        -9.2904   -0.2701   62.7084 H       1  ZINC000508765459    0.0900
     37 H37       -11.7007   -0.7028   59.6713 H       1  ZINC000508765459    0.0700
     38 H38       -10.4060    0.4811   59.3906 H       1  ZINC000508765459    0.1000
     39 H39       -10.7227   -1.3000   57.5677 H       1  ZINC000508765459    0.1200
     40 H40        -9.0673   -1.1248   58.2064 H       1  ZINC000508765459    0.0800
     41 H41       -11.5958   -2.4718   56.8660 H       1  ZINC000508765459    0.4000
     42 H42       -11.7877   -5.2655   56.2411 H       1  ZINC000508765459    0.0700
     43 H43       -13.2379   -4.6946   57.1010 H       1  ZINC000508765459    0.0700
     44 H44       -13.7544   -4.4164   54.7900 H       1  ZINC000508765459    0.0700
     45 H45       -13.3075   -2.7881   55.3534 H       1  ZINC000508765459    0.0800
     46 H46       -10.9175   -3.3352   54.5848 H       1  ZINC000508765459    0.0800
     47 H47       -11.6132   -4.7524   53.7628 H       1  ZINC000508765459    0.0400
     48 H48       -12.5641   -1.1614   54.1473 H       1  ZINC000508765459    0.0500
     49 H49       -10.9064   -1.3436   53.5238 H       1  ZINC000508765459    0.0900
     50 H50       -12.1622    0.4226   52.2947 H       1  ZINC000508765459    0.0900
     51 H51       -11.7109   -0.9274   51.2253 H       1  ZINC000508765459    0.0600
     52 H52       -15.4499    2.9211   50.1537 H       1  ZINC000508765459    0.1700
     53 H53       -15.1830    2.1435   47.8093 H       1  ZINC000508765459    0.1500
     54 H54       -14.2086   -0.1052   47.4018 H       1  ZINC000508765459    0.1700
     55 H55       -15.0684   -2.3910   51.2207 H       1  ZINC000508765459    0.1000
     56 H56       -13.4107   -2.5731   50.5972 H       1  ZINC000508765459    0.0500
     57 H57       -13.8126   -4.1571   52.4497 H       1  ZINC000508765459    0.0900
     58 H58       -14.2640   -2.8072   53.5191 H       1  ZINC000508765459    0.0500
     59 H59        -9.6057   -4.1531   60.4344 H       1  ZINC000508765459    0.1100
     60 H60        -8.2324   -3.2597   59.7333 H       1  ZINC000508765459    0.1100
@<TRIPOS>BOND
     1     1     2    1
     2     1    30    1
     3     1    31    1
     4     1    32    1
     5     2     3    1
     6     3     4    1
     7     3    33    1
     8     3    34    1
     9     4     5    1
    10     4    35    1
    11     4    36    1
    12     5    28   am
    13     5     6    1
    14     6     7    1
    15     6    37    1
    16     6    38    1
    17     7     8    1
    18     7    39    1
    19     7    40    1
    20     8     9   am
    21     8    27    1
    22     9    10    2
    23     9    11   am
    24    11    12    1
    25    11    41    1
    26    12    13    1
    27    12    42    1
    28    12    43    1
    29    13    14    1
    30    13    44    1
    31    13    45    1
    32    14    15    1
    33    14    46    1
    34    14    47    1
    35    15    26    1
    36    15    16    1
    37    16    17    1
    38    16    48    1
    39    16    49    1
    40    17    18    1
    41    17    50    1
    42    17    51    1
    43    18    19    1
    44    18    25    1
    45    19    24   ar
    46    19    20   ar
    47    20    21   ar
    48    21    22   ar
    49    21    52    1
    50    22    23   ar
    51    22    53    1
    52    23    24   ar
    53    23    54    1
    54    25    26    1
    55    25    55    1
    56    25    56    1
    57    26    57    1
    58    26    58    1
    59    27    28    1
    60    27    59    1
    61    27    60    1
    62    28    29    2
@<TRIPOS>SUBSTRUCTURE
     1 ZINC000508765459        1 TEMP              0 ****  ****    0 ROOT


##########                                Name:    ZINC000482846390
##########                DOCK_Rotatable_Bonds:                   9
##########                         Heavy_Atoms:                  30
##########                    Molecular_Weight:             420.469
##########                DOCK_Rotatable_Bonds:                   9
##########                       Formal_Charge:          -0.0100011
##########                     HBond_Acceptors:                  11
##########                        HBond_Donors:                   2
##########                         Heavy_Atoms:                  30
##########                          Grid_Score:          -38.827057
##########                     Grid_vdw_energy:          -38.216751
##########                      Grid_es_energy:           -0.610306
##########           Internal_energy_repulsive:           28.945650

@<TRIPOS>MOLECULE
ZINC000482846390
 58 60 1 0 0
SMALL
USER_CHARGES


@<TRIPOS>ATOM
      1 C1         -9.4062   -4.0729   59.4018 C.3     1  ZINC000482846390   -0.1000
      2 C2         -9.8823   -2.6557   59.2122 C.2     1  ZINC000482846390    0.0900
      3 C3        -10.2581   -1.8024   60.1928 C.2     1  ZINC000482846390   -0.2700
      4 C4        -10.6279   -0.5940   59.5935 C.2     1  ZINC000482846390    0.0700
      5 C5        -11.1126    0.6377   60.3138 C.3     1  ZINC000482846390   -0.0500
      6 C6        -12.2481    0.2579   61.2663 C.3     1  ZINC000482846390    0.1500
      7 H7        -13.0275    1.0189   61.2242 H       1  ZINC000482846390    0.1000
      8 C8        -11.7058    0.1620   62.6937 C.3     1  ZINC000482846390   -0.1700
      9 N9        -12.8072   -1.0363   60.8682 N.am    1  ZINC000482846390   -0.6800
     10 C10       -14.1299   -1.2651   60.9896 C.2     1  ZINC000482846390    0.5100
     11 O11       -14.8578   -0.3985   61.4272 O.2     1  ZINC000482846390   -0.5200
     12 C12       -14.6999   -2.5860   60.5851 C.2     1  ZINC000482846390    0.5100
     13 O13       -14.9212   -3.4341   61.4245 O.2     1  ZINC000482846390   -0.5100
     14 N14       -14.9685   -2.8355   59.2882 N.am    1  ZINC000482846390   -0.5900
     15 C15       -14.7001   -1.8201   58.2601 C.3     1  ZINC000482846390    0.0500
     16 C16       -13.7899   -2.4350   57.1898 C.3     1  ZINC000482846390    0.1000
     17 N17       -14.3558   -3.7273   56.7781 N.am    1  ZINC000482846390   -0.6000
     18 C18       -14.6235   -3.9771   55.4810 C.2     1  ZINC000482846390    0.5200
     19 O19       -15.0907   -5.0480   55.1532 O.2     1  ZINC000482846390   -0.5000
     20 C20       -14.3449   -2.9352   54.4464 C.2     1  ZINC000482846390    0.5200
     21 O21       -15.0781   -1.9740   54.3405 O.2     1  ZINC000482846390   -0.5000
     22 N22       -13.2796   -3.0632   53.6309 N.am    1  ZINC000482846390   -0.6000
     23 C23       -12.9817   -2.0473   52.6088 C.3     1  ZINC000482846390    0.0700
     24 C24       -11.5103   -1.6402   52.7463 C.3     1  ZINC000482846390    0.0500
     25 O25       -10.6938   -2.8137   52.7320 O.3     1  ZINC000482846390   -0.3700
     26 C26       -10.9376   -3.7096   53.8191 C.3     1  ZINC000482846390    0.0500
     27 C27       -12.3765   -4.2198   53.7403 C.3     1  ZINC000482846390    0.0700
     28 C28       -14.6242   -4.7428   57.8062 C.3     1  ZINC000482846390    0.0900
     29 C29       -15.5292   -4.1298   58.8758 C.3     1  ZINC000482846390    0.0900
     30 N30       -10.4793   -0.7172   58.2994 N.2     1  ZINC000482846390   -0.2800
     31 N31       -10.0046   -2.0083   58.0344 N.pl3   1  ZINC000482846390   -0.4700
     32 H32        -8.3240   -4.0784   59.5314 H       1  ZINC000482846390    0.0800
     33 H33        -9.8802   -4.5003   60.2854 H       1  ZINC000482846390    0.0900
     34 H34        -9.6702   -4.6651   58.5256 H       1  ZINC000482846390    0.0700
     35 H35       -10.2707   -2.0167   61.2512 H       1  ZINC000482846390    0.1500
     36 H36       -10.2910    1.0727   60.8831 H       1  ZINC000482846390    0.0900
     37 H37       -11.4757    1.3644   59.5871 H       1  ZINC000482846390    0.1100
     38 H38       -11.2899    1.1249   62.9900 H       1  ZINC000482846390    0.0700
     39 H39       -12.5148   -0.1087   63.3722 H       1  ZINC000482846390    0.0700
     40 H40       -10.9265   -0.5990   62.7359 H       1  ZINC000482846390    0.0600
     41 H41       -12.2255   -1.7286   60.5172 H       1  ZINC000482846390    0.4200
     42 H42       -15.6385   -1.5038   57.8046 H       1  ZINC000482846390    0.0800
     43 H43       -14.2034   -0.9624   58.7139 H       1  ZINC000482846390    0.1600
     44 H44       -13.7356   -1.7686   56.3288 H       1  ZINC000482846390    0.1100
     45 H45       -12.7922   -2.5870   57.6014 H       1  ZINC000482846390    0.0800
     46 H46       -13.1564   -2.4629   51.6164 H       1  ZINC000482846390    0.0900
     47 H47       -13.6193   -1.1763   52.7600 H       1  ZINC000482846390    0.0900
     48 H48       -11.2322   -0.9931   51.9144 H       1  ZINC000482846390    0.1100
     49 H49       -11.3661   -1.1078   53.6865 H       1  ZINC000482846390    0.0600
     50 H50       -10.2476   -4.5512   53.7590 H       1  ZINC000482846390    0.1100
     51 H51       -10.7914   -3.1847   54.7632 H       1  ZINC000482846390    0.0600
     52 H52       -12.6139   -4.7892   54.6389 H       1  ZINC000482846390    0.1100
     53 H53       -12.4934   -4.8543   52.8616 H       1  ZINC000482846390    0.0800
     54 H54       -15.1209   -5.6004   57.3524 H       1  ZINC000482846390    0.0900
     55 H55       -13.6858   -5.0591   58.2616 H       1  ZINC000482846390    0.0900
     56 H56       -15.5826   -4.7972   59.7360 H       1  ZINC000482846390    0.1100
     57 H57       -16.5276   -3.9763   58.4662 H       1  ZINC000482846390    0.0800
     58 H58        -9.8049   -2.3743   57.1585 H       1  ZINC000482846390    0.4400
@<TRIPOS>BOND
     1     1     2    1
     2     1    32    1
     3     1    33    1
     4     1    34    1
     5     2    31    1
     6     2     3    2
     7     3     4    1
     8     3    35    1
     9     4     5    1
    10     4    30    2
    11     5     6    1
    12     5    36    1
    13     5    37    1
    14     6     7    1
    15     6     8    1
    16     6     9    1
    17     8    38    1
    18     8    39    1
    19     8    40    1
    20     9    10   am
    21     9    41    1
    22    10    11    2
    23    10    12    1
    24    12    13    2
    25    12    14   am
    26    14    29    1
    27    14    15    1
    28    15    16    1
    29    15    42    1
    30    15    43    1
    31    16    17    1
    32    16    44    1
    33    16    45    1
    34    17    18   am
    35    17    28    1
    36    18    19    2
    37    18    20    1
    38    20    21    2
    39    20    22   am
    40    22    27    1
    41    22    23    1
    42    23    24    1
    43    23    46    1
    44    23    47    1
    45    24    25    1
    46    24    48    1
    47    24    49    1
    48    25    26    1
    49    26    27    1
    50    26    50    1
    51    26    51    1
    52    27    52    1
    53    27    53    1
    54    28    29    1
    55    28    54    1
    56    28    55    1
    57    29    56    1
    58    29    57    1
    59    30    31    1
    60    31    58    1
@<TRIPOS>SUBSTRUCTURE
     1 ZINC000482846390        1 TEMP              0 ****  ****    0 ROOT


##########                                Name:    ZINC000508782983
##########                DOCK_Rotatable_Bonds:                   9
##########                         Heavy_Atoms:                  27
##########                    Molecular_Weight:             373.458
##########                DOCK_Rotatable_Bonds:                   9
##########                       Formal_Charge:          -0.0200006
##########                     HBond_Acceptors:                   9
##########                        HBond_Donors:                   2
##########                         Heavy_Atoms:                  27
##########                          Grid_Score:          -38.817558
##########                     Grid_vdw_energy:          -36.351322
##########                      Grid_es_energy:           -2.466234
##########           Internal_energy_repulsive:           15.777399

@<TRIPOS>MOLECULE
ZINC000508782983
 54 56 1 0 0
SMALL
USER_CHARGES


@<TRIPOS>ATOM
      1 C1        -10.4942    2.7977   55.5823 C.3     1  ZINC000508782983   -0.1500
      2 C2         -9.6878    1.7770   54.7769 C.3     1  ZINC000508782983   -0.1100
      3 C3         -9.1500    0.6959   55.7166 C.3     1  ZINC000508782983   -0.1500
      4 C4        -10.5892    1.1330   53.7216 C.3     1  ZINC000508782983    0.1000
      5 N5         -9.8016    0.2036   52.9079 N.pl3   1  ZINC000508782983   -0.4400
      6 C6         -8.4730    0.3192   52.5995 C.2     1  ZINC000508782983   -0.0400
      7 C7         -8.1559   -0.7445   51.8369 C.2     1  ZINC000508782983   -0.0300
      8 N8         -9.2609   -1.4893   51.6838 N.2     1  ZINC000508782983   -0.4700
      9 C9        -10.2493   -0.9301   52.3268 C.2     1  ZINC000508782983    0.1700
     10 C10       -11.6592   -1.4574   52.4005 C.3     1  ZINC000508782983    0.2100
     11 N11       -11.7074   -2.5952   53.3220 N.am    1  ZINC000508782983   -0.6900
     12 C12       -12.8891   -3.0086   53.8212 C.2     1  ZINC000508782983    0.5100
     13 O13       -13.9130   -2.4373   53.5085 O.2     1  ZINC000508782983   -0.5100
     14 C14       -12.9385   -4.1705   54.7599 C.2     1  ZINC000508782983    0.5100
     15 O15       -13.2305   -5.2731   54.3457 O.2     1  ZINC000508782983   -0.5200
     16 N16       -12.6587   -3.9938   56.0664 N.am    1  ZINC000508782983   -0.5800
     17 C17       -12.6954   -5.1247   57.0060 C.3     1  ZINC000508782983    0.0800
     18 C18       -11.3799   -5.1479   57.7915 C.3     1  ZINC000508782983    0.0400
     19 N19       -11.1591   -3.8337   58.4096 N.3     1  ZINC000508782983   -0.5400
     20 C20        -9.9993   -3.8639   59.3106 C.3     1  ZINC000508782983    0.1400
     21 C21       -10.1315   -2.7679   60.3365 C.2     1  ZINC000508782983    0.2100
     22 N22       -11.2134   -2.0795   60.5791 N.2     1  ZINC000508782983   -0.4900
     23 C23       -10.9639   -1.1923   61.5535 C.2     1  ZINC000508782983   -0.0300
     24 C24        -9.6788   -1.3362   61.9291 C.2     1  ZINC000508782983   -0.0500
     25 N25        -9.1516   -2.3392   61.1610 N.pl3   1  ZINC000508782983   -0.5600
     26 C26       -11.0082   -2.7849   57.3921 C.3     1  ZINC000508782983    0.0400
     27 C27       -12.3025   -2.6659   56.5891 C.3     1  ZINC000508782983    0.1100
     28 H28        -9.8519    3.2564   56.3342 H       1  ZINC000508782983    0.0700
     29 H29       -10.8773    3.5679   54.9129 H       1  ZINC000508782983    0.0600
     30 H30       -11.3277    2.2959   56.0738 H       1  ZINC000508782983    0.0600
     31 H31        -8.8541    2.2786   54.2855 H       1  ZINC000508782983    0.0800
     32 H32        -9.9778    0.2467   56.2652 H       1  ZINC000508782983    0.0600
     33 H33        -8.6412   -0.0719   55.1337 H       1  ZINC000508782983    0.0600
     34 H34        -8.4477    1.1427   56.4203 H       1  ZINC000508782983    0.0600
     35 H35       -11.3957    0.5905   54.2148 H       1  ZINC000508782983    0.1000
     36 H36       -11.0109    1.9083   53.0820 H       1  ZINC000508782983    0.0900
     37 H37        -7.8070    1.1114   52.9082 H       1  ZINC000508782983    0.1800
     38 H38        -7.1827   -0.9601   51.4215 H       1  ZINC000508782983    0.1700
     39 H39       -12.3229   -0.6708   52.7595 H       1  ZINC000508782983    0.0900
     40 H40       -11.9793   -1.7788   51.4094 H       1  ZINC000508782983    0.1100
     41 H41       -10.8888   -3.0512   53.5730 H       1  ZINC000508782983    0.4200
     42 H42       -13.5311   -5.0014   57.6949 H       1  ZINC000508782983    0.0800
     43 H43       -12.8080   -6.0570   56.4527 H       1  ZINC000508782983    0.1400
     44 H44       -11.4334   -5.9107   58.5682 H       1  ZINC000508782983    0.0900
     45 H45       -10.5561   -5.3746   57.1147 H       1  ZINC000508782983    0.0400
     46 H46        -9.9554   -4.8295   59.8143 H       1  ZINC000508782983    0.0900
     47 H47        -9.0868   -3.7133   58.7336 H       1  ZINC000508782983    0.0700
     48 H48       -11.6701   -0.4863   61.9649 H       1  ZINC000508782983    0.1700
     49 H49        -9.1640   -0.7717   62.6925 H       1  ZINC000508782983    0.1800
     50 H50        -8.2426   -2.6754   61.1982 H       1  ZINC000508782983    0.4200
     51 H51       -10.7921   -1.8340   57.8792 H       1  ZINC000508782983    0.1100
     52 H52       -10.1895   -3.0444   56.7209 H       1  ZINC000508782983    0.0400
     53 H53       -12.1575   -1.9717   55.7615 H       1  ZINC000508782983    0.1000
     54 H54       -13.1031   -2.3069   57.2359 H       1  ZINC000508782983    0.0800
@<TRIPOS>BOND
     1     1     2    1
     2     1    28    1
     3     1    29    1
     4     1    30    1
     5     2     3    1
     6     2     4    1
     7     2    31    1
     8     3    32    1
     9     3    33    1
    10     3    34    1
    11     4     5    1
    12     4    35    1
    13     4    36    1
    14     5     9    1
    15     5     6    1
    16     6     7    2
    17     6    37    1
    18     7     8    1
    19     7    38    1
    20     8     9    2
    21     9    10    1
    22    10    11    1
    23    10    39    1
    24    10    40    1
    25    11    12   am
    26    11    41    1
    27    12    13    2
    28    12    14    1
    29    14    15    2
    30    14    16   am
    31    16    27    1
    32    16    17    1
    33    17    18    1
    34    17    42    1
    35    17    43    1
    36    18    19    1
    37    18    44    1
    38    18    45    1
    39    19    20    1
    40    19    26    1
    41    20    21    1
    42    20    46    1
    43    20    47    1
    44    21    25    1
    45    21    22    2
    46    22    23    1
    47    23    24    2
    48    23    48    1
    49    24    25    1
    50    24    49    1
    51    25    50    1
    52    26    27    1
    53    26    51    1
    54    26    52    1
    55    27    53    1
    56    27    54    1
@<TRIPOS>SUBSTRUCTURE
     1 ZINC000508782983        1 TEMP              0 ****  ****    0 ROOT


##########                                Name:    ZINC000552360217
##########                DOCK_Rotatable_Bonds:                  13
##########                         Heavy_Atoms:                  27
##########                    Molecular_Weight:             401.484
##########                DOCK_Rotatable_Bonds:                  13
##########                       Formal_Charge:          -0.0100002
##########                     HBond_Acceptors:                  10
##########                        HBond_Donors:                   3
##########                         Heavy_Atoms:                  27
##########                          Grid_Score:          -38.771450
##########                     Grid_vdw_energy:          -38.061722
##########                      Grid_es_energy:           -0.709728
##########           Internal_energy_repulsive:           20.596928

@<TRIPOS>MOLECULE
ZINC000552360217
 54 54 1 0 0
SMALL
USER_CHARGES


@<TRIPOS>ATOM
      1 C1        -14.7358   -3.9741   58.1482 C.3     1  ZINC000552360217    0.0800
      2 N2        -13.7693   -4.4523   57.1565 N.am    1  ZINC000552360217   -1.0000
      3 C3        -13.9847   -5.7356   56.4834 C.3     1  ZINC000552360217    0.0900
      4 S4        -12.4336   -3.5422   56.7961 S.o2    1  ZINC000552360217    2.7000
      5 O5        -11.6305   -4.3334   55.9310 O.2     1  ZINC000552360217   -0.9500
      6 O6        -12.9106   -2.2498   56.4480 O.2     1  ZINC000552360217   -0.9500
      7 C7        -11.5163   -3.3489   58.2880 C.ar    1  ZINC000552360217   -0.6900
      8 C8        -10.5204   -4.2541   58.6082 C.ar    1  ZINC000552360217    0.0100
      9 C9         -9.7950   -4.1092   59.7778 C.ar    1  ZINC000552360217   -0.1400
     10 C10       -10.0613   -3.0598   60.6325 C.ar    1  ZINC000552360217   -0.0300
     11 C11       -11.0649   -2.1429   60.3154 C.ar    1  ZINC000552360217   -0.1600
     12 C12       -11.3554   -1.0155   61.2267 C.2     1  ZINC000552360217    0.5600
     13 O13       -12.3555   -1.0345   61.9175 O.2     1  ZINC000552360217   -0.5300
     14 N14       -10.5115    0.0332   61.2916 N.am    1  ZINC000552360217   -0.7100
     15 C15       -10.7984    1.1495   62.1960 C.3     1  ZINC000552360217    0.1000
     16 C16       -10.4645    0.7492   63.6100 C.2     1  ZINC000552360217    0.5100
     17 O17       -11.2876    0.8875   64.4898 O.2     1  ZINC000552360217   -0.5400
     18 N18        -9.2510    0.2376   63.8968 N.am    1  ZINC000552360217   -0.7200
     19 C19        -8.9270   -0.1532   65.2710 C.3     1  ZINC000552360217    0.1400
     20 C20        -7.9875    0.8847   65.8883 C.3     1  ZINC000552360217    0.1000
     21 C21        -8.7983    2.1000   66.3429 C.3     1  ZINC000552360217   -0.1800
     22 C22        -7.2698    0.2711   67.0920 C.3     1  ZINC000552360217   -0.1800
     23 O23        -7.0231    1.2924   64.9157 O.3     1  ZINC000552360217   -0.3700
     24 C24        -6.0284    2.1846   65.4219 C.3     1  ZINC000552360217    0.0600
     25 C25        -4.6727    1.4758   65.4467 C.3     1  ZINC000552360217    0.0800
     26 O26        -4.2405    1.2274   64.1074 O.3     1  ZINC000552360217   -0.5700
     27 C27       -11.7892   -2.2918   59.1318 C.ar    1  ZINC000552360217    0.0400
     28 H28       -14.4497   -4.3331   59.1369 H       1  ZINC000552360217    0.0600
     29 H29       -14.7484   -2.8841   58.1472 H       1  ZINC000552360217    0.0900
     30 H30       -15.7284   -4.3491   57.8986 H       1  ZINC000552360217    0.0800
     31 H31       -14.9081   -6.1863   56.8473 H       1  ZINC000552360217    0.0800
     32 H32       -14.0585   -5.5740   55.4080 H       1  ZINC000552360217    0.0700
     33 H33       -13.1478   -6.4014   56.6943 H       1  ZINC000552360217    0.0600
     34 H34       -10.3082   -5.0776   57.9425 H       1  ZINC000552360217    0.1500
     35 H35        -9.0190   -4.8195   60.0219 H       1  ZINC000552360217    0.1400
     36 H36        -9.4947   -2.9480   61.5451 H       1  ZINC000552360217    0.1400
     37 H37        -9.7140    0.0490   60.7396 H       1  ZINC000552360217    0.4100
     38 H38       -10.1960    2.0122   61.9109 H       1  ZINC000552360217    0.1000
     39 H39       -11.8555    1.4071   62.1313 H       1  ZINC000552360217    0.1000
     40 H40        -8.5922    0.1281   63.1933 H       1  ZINC000552360217    0.4100
     41 H41        -9.8434   -0.2088   65.8586 H       1  ZINC000552360217    0.0800
     42 H42        -8.4388   -1.1278   65.2661 H       1  ZINC000552360217    0.0900
     43 H43        -9.5338    1.7890   67.0848 H       1  ZINC000552360217    0.0700
     44 H44        -8.1290    2.8394   66.7826 H       1  ZINC000552360217    0.0700
     45 H45        -9.3097    2.5372   65.4854 H       1  ZINC000552360217    0.0700
     46 H46        -6.6921   -0.5947   66.7681 H       1  ZINC000552360217    0.0600
     47 H47        -6.6004    1.0105   67.5317 H       1  ZINC000552360217    0.0700
     48 H48        -8.0054   -0.0398   67.8339 H       1  ZINC000552360217    0.0700
     49 H49        -5.9674    3.0631   64.7795 H       1  ZINC000552360217    0.0600
     50 H50        -6.2963    2.4916   66.4329 H       1  ZINC000552360217    0.0700
     51 H51        -3.9421    2.1066   65.9532 H       1  ZINC000552360217    0.0600
     52 H52        -4.7671    0.5296   65.9794 H       1  ZINC000552360217    0.0500
     53 H53        -4.1462    2.0259   63.5702 H       1  ZINC000552360217    0.3800
     54 H54       -12.5670   -1.5858   58.8808 H       1  ZINC000552360217    0.1500
@<TRIPOS>BOND
     1     1     2    1
     2     1    28    1
     3     1    29    1
     4     1    30    1
     5     2     3    1
     6     2     4   am
     7     3    31    1
     8     3    32    1
     9     3    33    1
    10     4     5    2
    11     4     6    2
    12     4     7    1
    13     7    27   ar
    14     7     8   ar
    15     8     9   ar
    16     8    34    1
    17     9    10   ar
    18     9    35    1
    19    10    11   ar
    20    10    36    1
    21    11    12    1
    22    11    27   ar
    23    12    13    2
    24    12    14   am
    25    14    15    1
    26    14    37    1
    27    15    16    1
    28    15    38    1
    29    15    39    1
    30    16    17    2
    31    16    18   am
    32    18    19    1
    33    18    40    1
    34    19    20    1
    35    19    41    1
    36    19    42    1
    37    20    21    1
    38    20    22    1
    39    20    23    1
    40    21    43    1
    41    21    44    1
    42    21    45    1
    43    22    46    1
    44    22    47    1
    45    22    48    1
    46    23    24    1
    47    24    25    1
    48    24    49    1
    49    24    50    1
    50    25    26    1
    51    25    51    1
    52    25    52    1
    53    26    53    1
    54    27    54    1
@<TRIPOS>SUBSTRUCTURE
     1 ZINC000552360217        1 TEMP              0 ****  ****    0 ROOT


##########                                Name:    ZINC000767361237
##########                DOCK_Rotatable_Bonds:                  10
##########                         Heavy_Atoms:                  30
##########                    Molecular_Weight:             409.439
##########                DOCK_Rotatable_Bonds:                  10
##########                       Formal_Charge:          -0.0300005
##########                     HBond_Acceptors:                   7
##########                        HBond_Donors:                   1
##########                         Heavy_Atoms:                  30
##########                          Grid_Score:          -38.694260
##########                     Grid_vdw_energy:          -39.230762
##########                      Grid_es_energy:            0.536502
##########           Internal_energy_repulsive:           16.077665

@<TRIPOS>MOLECULE
ZINC000767361237
 53 55 1 0 0
SMALL
USER_CHARGES


@<TRIPOS>ATOM
      1 C1        -16.1982   -2.4214   49.6980 C.3     1  ZINC000767361237   -0.1200
      2 C2        -15.1684   -2.3623   50.7967 C.ar    1  ZINC000767361237   -0.0900
      3 C3        -15.5051   -2.7470   52.0810 C.ar    1  ZINC000767361237   -0.1200
      4 C4        -14.5605   -2.6928   53.0888 C.ar    1  ZINC000767361237   -0.1100
      5 C5        -13.2791   -2.2541   52.8123 C.ar    1  ZINC000767361237   -0.0800
      6 C6        -12.2495   -2.1945   53.9110 C.3     1  ZINC000767361237   -0.0800
      7 H7        -12.7167   -1.8346   54.8276 H       1  ZINC000767361237    0.0900
      8 C8        -11.1240   -1.2414   53.5040 C.3     1  ZINC000767361237   -0.1500
      9 C9        -11.6738   -3.5923   54.1469 C.3     1  ZINC000767361237    0.1300
     10 H10       -10.5864   -3.5338   54.1963 H       1  ZINC000767361237    0.1400
     11 O11       -12.0562   -4.4526   53.0720 O.3     1  ZINC000767361237   -0.5200
     12 C12       -12.2067   -4.1426   55.4448 C.2     1  ZINC000767361237    0.4300
     13 O13       -13.1631   -4.8810   55.4404 O.2     1  ZINC000767361237   -0.5000
     14 O14       -11.6189   -3.8125   56.6054 O.3     1  ZINC000767361237   -0.3300
     15 C15       -11.7218   -4.7699   57.6922 C.3     1  ZINC000767361237    0.0100
     16 C16       -10.6956   -4.4450   58.7468 C.2     1  ZINC000767361237    0.3700
     17 O17        -9.6631   -5.0695   58.7973 O.2     1  ZINC000767361237   -0.4200
     18 C18       -10.9577   -3.3409   59.7384 C.3     1  ZINC000767361237   -0.1800
     19 C19        -9.7547   -2.3964   59.7799 C.3     1  ZINC000767361237    0.1200
     20 N20        -9.9967   -1.3405   60.7660 N.am    1  ZINC000767361237   -0.5800
     21 C21       -10.7669   -0.2590   60.5496 C.2     1  ZINC000767361237    0.5700
     22 O22       -11.3627   -0.0072   59.5217 O.2     1  ZINC000767361237   -0.4600
     23 C23       -10.7675    0.5712   61.7726 C.ar    1  ZINC000767361237   -0.1400
     24 C24       -11.3663    1.7685   62.1290 C.ar    1  ZINC000767361237   -0.0400
     25 C25       -11.1558    2.2921   63.3955 C.ar    1  ZINC000767361237   -0.0900
     26 C26       -10.3532    1.6280   64.3034 C.ar    1  ZINC000767361237   -0.0900
     27 C27        -9.7474    0.4289   63.9607 C.ar    1  ZINC000767361237   -0.0400
     28 C28        -9.9487   -0.1063   62.6990 C.ar    1  ZINC000767361237   -0.1400
     29 C29        -9.4826   -1.3275   62.0091 C.2     1  ZINC000767361237    0.5700
     30 O30        -8.7554   -2.1764   62.4842 O.2     1  ZINC000767361237   -0.4600
     31 C31       -12.9420   -1.8707   51.5277 C.ar    1  ZINC000767361237   -0.1100
     32 C32       -13.8855   -1.9286   50.5190 C.ar    1  ZINC000767361237   -0.1200
     33 H33       -16.1657   -3.4014   49.2219 H       1  ZINC000767361237    0.0700
     34 H34       -17.1894   -2.2552   50.1197 H       1  ZINC000767361237    0.0700
     35 H35       -15.9843   -1.6506   48.9576 H       1  ZINC000767361237    0.0700
     36 H36       -16.5062   -3.0898   52.2970 H       1  ZINC000767361237    0.1200
     37 H37       -14.8238   -2.9927   54.0924 H       1  ZINC000767361237    0.1200
     38 H38       -10.3792   -1.1982   54.2988 H       1  ZINC000767361237    0.0800
     39 H39       -10.6567   -1.6014   52.5874 H       1  ZINC000767361237    0.0700
     40 H40       -11.5341   -0.2455   53.3360 H       1  ZINC000767361237    0.0600
     41 H41       -11.6066   -4.2627   52.2372 H       1  ZINC000767361237    0.3900
     42 H42       -12.7196   -4.7189   58.1281 H       1  ZINC000767361237    0.1100
     43 H43       -11.5436   -5.7748   57.3092 H       1  ZINC000767361237    0.1100
     44 H44       -11.8456   -2.7853   59.4370 H       1  ZINC000767361237    0.1100
     45 H45       -11.1163   -3.7709   60.7274 H       1  ZINC000767361237    0.1100
     46 H46        -8.8624   -2.9566   60.0590 H       1  ZINC000767361237    0.1100
     47 H47        -9.6100   -1.9490   58.7965 H       1  ZINC000767361237    0.1100
     48 H48       -11.9943    2.2919   61.4232 H       1  ZINC000767361237    0.1400
     49 H49       -11.6219    3.2256   63.6741 H       1  ZINC000767361237    0.1400
     50 H50       -10.1965    2.0461   65.2868 H       1  ZINC000767361237    0.1400
     51 H51        -9.1214   -0.0859   64.6746 H       1  ZINC000767361237    0.1400
     52 H52       -11.9408   -1.5283   51.3115 H       1  ZINC000767361237    0.1200
     53 H53       -13.6222   -1.6290   49.5154 H       1  ZINC000767361237    0.1200
@<TRIPOS>BOND
     1     1     2    1
     2     1    33    1
     3     1    34    1
     4     1    35    1
     5     2    32   ar
     6     2     3   ar
     7     3     4   ar
     8     3    36    1
     9     4     5   ar
    10     4    37    1
    11     5     6    1
    12     5    31   ar
    13     6     7    1
    14     6     8    1
    15     6     9    1
    16     8    38    1
    17     8    39    1
    18     8    40    1
    19     9    10    1
    20     9    11    1
    21     9    12    1
    22    11    41    1
    23    12    13    2
    24    12    14    1
    25    14    15    1
    26    15    16    1
    27    15    42    1
    28    15    43    1
    29    16    17    2
    30    16    18    1
    31    18    19    1
    32    18    44    1
    33    18    45    1
    34    19    20    1
    35    19    46    1
    36    19    47    1
    37    20    29   am
    38    20    21   am
    39    21    22    2
    40    21    23    1
    41    23    28   ar
    42    23    24   ar
    43    24    25   ar
    44    24    48    1
    45    25    26   ar
    46    25    49    1
    47    26    27   ar
    48    26    50    1
    49    27    28   ar
    50    27    51    1
    51    28    29    1
    52    29    30    2
    53    31    32   ar
    54    31    52    1
    55    32    53    1
@<TRIPOS>SUBSTRUCTURE
     1 ZINC000767361237        1 TEMP              0 ****  ****    0 ROOT


##########                                Name:    ZINC001191196975
##########                DOCK_Rotatable_Bonds:                  14
##########                         Heavy_Atoms:                  24
##########                    Molecular_Weight:             339.438
##########                DOCK_Rotatable_Bonds:                  14
##########                       Formal_Charge:          0.00999969
##########                     HBond_Acceptors:                   8
##########                        HBond_Donors:                   4
##########                         Heavy_Atoms:                  24
##########                          Grid_Score:          -38.693798
##########                     Grid_vdw_energy:          -34.986523
##########                      Grid_es_energy:           -3.707275
##########           Internal_energy_repulsive:           15.682830

@<TRIPOS>MOLECULE
ZINC001191196975
 53 53 1 0 0
SMALL
USER_CHARGES


@<TRIPOS>ATOM
      1 C1         -7.5386   -0.7881   51.1778 C.2     1  ZINC001191196975   -0.1600
      2 C2         -7.9665    0.4179   51.4577 C.2     1  ZINC001191196975   -0.1800
      3 C3         -7.4941    1.5935   50.6416 C.3     1  ZINC001191196975    0.1500
      4 N4         -6.1118    1.3664   50.2128 N.am    1  ZINC001191196975   -0.7300
      5 C5         -5.0894    1.7781   50.9883 C.2     1  ZINC001191196975    0.5100
      6 O6         -5.3136    2.3353   52.0419 O.2     1  ZINC001191196975   -0.5200
      7 C7         -3.6674    1.5461   50.5462 C.3     1  ZINC001191196975    0.0300
      8 N8         -3.2176    2.6806   49.7285 N.3     1  ZINC001191196975   -0.5100
      9 C9         -2.7912    3.8031   50.5747 C.3     1  ZINC001191196975    0.0200
     10 C10        -2.1442    2.2754   48.8111 C.3     1  ZINC001191196975    0.0700
     11 H11        -1.3239    1.8075   49.3553 H       1  ZINC001191196975    0.0600
     12 C12        -1.6410    3.4825   47.9763 C.3     1  ZINC001191196975   -0.1200
     13 C13        -1.0971    2.8145   46.6959 C.3     1  ZINC001191196975    0.1000
     14 N14        -1.7485    1.5018   46.5778 N.am    1  ZINC001191196975   -0.6200
     15 C15        -1.5261    0.5994   45.6018 C.2     1  ZINC001191196975    0.5300
     16 O16        -2.1239   -0.4559   45.6039 O.2     1  ZINC001191196975   -0.5400
     17 C17        -0.5346    0.9015   44.5079 C.3     1  ZINC001191196975   -0.1300
     18 C18        -0.8519    0.0444   43.2809 C.3     1  ZINC001191196975   -0.1000
     19 C19         0.2853    0.1676   42.2649 C.3     1  ZINC001191196975   -0.1300
     20 C20        -0.0898   -0.5837   40.9859 C.3     1  ZINC001191196975    0.1400
     21 N21         0.9836   -0.4359   39.9999 N.am    1  ZINC001191196975   -0.7500
     22 C22         1.0467    0.6707   39.2332 C.2     1  ZINC001191196975    0.7000
     23 N23         2.0352    0.8073   38.3272 N.am    1  ZINC001191196975   -0.8700
     24 O24         0.2119    1.5457   39.3588 O.2     1  ZINC001191196975   -0.5900
     25 C25        -2.6846    1.3349   47.7051 C.3     1  ZINC001191196975    0.1100
     26 H26        -6.8471   -0.9400   50.3621 H       1  ZINC001191196975    0.1000
     27 H27        -7.8738   -1.6299   51.7654 H       1  ZINC001191196975    0.1000
     28 H28        -8.6580    0.5698   52.2733 H       1  ZINC001191196975    0.1200
     29 H29        -8.1323    1.7074   49.7654 H       1  ZINC001191196975    0.0800
     30 H30        -7.5427    2.4987   51.2467 H       1  ZINC001191196975    0.0700
     31 H31        -5.9325    0.9197   49.3706 H       1  ZINC001191196975    0.4000
     32 H32        -3.0253    1.4523   51.4220 H       1  ZINC001191196975    0.0700
     33 H33        -3.6148    0.6304   49.9574 H       1  ZINC001191196975    0.1100
     34 H34        -2.0441    3.4566   51.2887 H       1  ZINC001191196975    0.0200
     35 H35        -2.3612    4.5860   49.9500 H       1  ZINC001191196975    0.0700
     36 H36        -3.6520    4.1997   51.1131 H       1  ZINC001191196975    0.0900
     37 H37        -2.4635    4.1575   47.7396 H       1  ZINC001191196975    0.0900
     38 H38        -0.8463    4.0111   48.5029 H       1  ZINC001191196975    0.0800
     39 H39        -1.3378    3.4273   45.8271 H       1  ZINC001191196975    0.0700
     40 H40        -0.0174    2.6868   46.7742 H       1  ZINC001191196975    0.0700
     41 H41        -0.5987    1.9564   44.2407 H       1  ZINC001191196975    0.0900
     42 H42         0.4726    0.6760   44.8581 H       1  ZINC001191196975    0.0900
     43 H43        -0.9578   -0.9975   43.5831 H       1  ZINC001191196975    0.0800
     44 H44        -1.7822    0.3879   42.8285 H       1  ZINC001191196975    0.0800
     45 H45         0.4526    1.2194   42.0326 H       1  ZINC001191196975    0.0700
     46 H46         1.1954   -0.2610   42.6843 H       1  ZINC001191196975    0.0700
     47 H47        -0.2313   -1.6402   41.2134 H       1  ZINC001191196975    0.0700
     48 H48        -1.0144   -0.1722   40.5808 H       1  ZINC001191196975    0.0700
     49 H49         1.6489   -1.1346   39.8989 H       1  ZINC001191196975    0.4000
     50 H50         2.0813    1.6043   37.7761 H       1  ZINC001191196975    0.4000
     51 H51         2.7004    0.1086   38.2263 H       1  ZINC001191196975    0.4200
     52 H52        -2.6821    0.3010   48.0504 H       1  ZINC001191196975    0.0800
     53 H53        -3.6902    1.6350   47.4108 H       1  ZINC001191196975    0.0800
@<TRIPOS>BOND
     1     1     2    2
     2     1    26    1
     3     1    27    1
     4     2     3    1
     5     2    28    1
     6     3     4    1
     7     3    29    1
     8     3    30    1
     9     4     5   am
    10     4    31    1
    11     5     6    2
    12     5     7    1
    13     7     8    1
    14     7    32    1
    15     7    33    1
    16     8     9    1
    17     8    10    1
    18     9    34    1
    19     9    35    1
    20     9    36    1
    21    10    11    1
    22    10    25    1
    23    10    12    1
    24    12    13    1
    25    12    37    1
    26    12    38    1
    27    13    14    1
    28    13    39    1
    29    13    40    1
    30    14    15   am
    31    14    25    1
    32    15    16    2
    33    15    17    1
    34    17    18    1
    35    17    41    1
    36    17    42    1
    37    18    19    1
    38    18    43    1
    39    18    44    1
    40    19    20    1
    41    19    45    1
    42    19    46    1
    43    20    21    1
    44    20    47    1
    45    20    48    1
    46    21    22   am
    47    21    49    1
    48    22    23   am
    49    22    24    2
    50    23    50    1
    51    23    51    1
    52    25    52    1
    53    25    53    1
@<TRIPOS>SUBSTRUCTURE
     1 ZINC001191196975        1 TEMP              0 ****  ****    0 ROOT


##########                                Name:    ZINC000442864105
##########                DOCK_Rotatable_Bonds:                   7
##########                         Heavy_Atoms:                  30
##########                    Molecular_Weight:              414.39
##########                DOCK_Rotatable_Bonds:                   7
##########                       Formal_Charge:           0.0200001
##########                     HBond_Acceptors:                  10
##########                        HBond_Donors:                   2
##########                         Heavy_Atoms:                  30
##########                          Grid_Score:          -38.661713
##########                     Grid_vdw_energy:          -38.034977
##########                      Grid_es_energy:           -0.626737
##########           Internal_energy_repulsive:           12.432717

@<TRIPOS>MOLECULE
ZINC000442864105
 47 50 1 0 0
SMALL
USER_CHARGES


@<TRIPOS>ATOM
      1 C1         -3.2649    1.9516   46.6907 C.3     1  ZINC000442864105    0.0800
      2 N2         -2.6133    2.4391   47.9090 N.pl3   1  ZINC000442864105   -0.4900
      3 C3         -1.3814    3.0366   47.9577 C.2     1  ZINC000442864105    0.0300
      4 C4         -1.0811    3.3626   49.2242 C.2     1  ZINC000442864105   -0.1900
      5 C5         -2.2120    2.9400   50.0555 C.ar    1  ZINC000442864105   -0.1600
      6 C6         -2.4863    3.0053   51.4230 C.ar    1  ZINC000442864105   -0.0200
      7 C7         -3.6641    2.5099   51.9048 C.ar    1  ZINC000442864105   -0.2100
      8 C8         -4.5967    1.9386   51.0403 C.ar    1  ZINC000442864105    0.2400
      9 N9         -5.7977    1.4361   51.5495 N.pl3   1  ZINC000442864105   -0.7400
     10 C10        -6.6801    0.6398   50.6930 C.3     1  ZINC000442864105    0.1100
     11 C11        -7.6901   -0.0831   51.5465 C.2     1  ZINC000442864105    0.5100
     12 O12        -7.6721   -1.2941   51.6132 O.2     1  ZINC000442864105   -0.5100
     13 N13        -8.6135    0.6160   52.2359 N.am    1  ZINC000442864105   -0.6600
     14 C14        -9.5516   -0.0554   53.0286 C.ar    1  ZINC000442864105    0.1600
     15 C15       -10.3040   -1.0893   52.4909 C.ar    1  ZINC000442864105   -0.0700
     16 C16       -11.2296   -1.7507   53.2756 C.ar    1  ZINC000442864105   -0.1600
     17 C17       -12.0458   -2.8737   52.6893 C.3     1  ZINC000442864105    0.5100
     18 F18       -11.9543   -2.8376   51.2938 F       1  ZINC000442864105   -0.1700
     19 F19       -11.5576   -4.0985   53.1572 F       1  ZINC000442864105   -0.1700
     20 F20       -13.3833   -2.7277   53.0729 F       1  ZINC000442864105   -0.1700
     21 C21       -11.4088   -1.3854   54.5972 C.ar    1  ZINC000442864105   -0.0600
     22 C22       -10.6639   -0.3561   55.1411 C.ar    1  ZINC000442864105   -0.1100
     23 C23        -9.7287    0.3094   54.3630 C.ar    1  ZINC000442864105    0.1500
     24 N24        -8.9717    1.3542   54.9128 N.pl3   1  ZINC000442864105   -0.3300
     25 C25        -8.7771    2.5768   54.3819 C.2     1  ZINC000442864105    0.2800
     26 N26        -8.0144    3.2570   55.1994 N.2     1  ZINC000442864105   -0.5300
     27 C27        -7.7034    2.5078   56.2565 C.2     1  ZINC000442864105    0.2300
     28 N28        -8.2706    1.3364   56.1297 N.2     1  ZINC000442864105   -0.3400
     29 C29        -4.3426    1.8656   49.6816 C.ar    1  ZINC000442864105   -0.2100
     30 C30        -3.1502    2.3704   49.1752 C.ar    1  ZINC000442864105    0.1500
     31 H31        -3.8627    2.7514   46.2535 H       1  ZINC000442864105    0.0700
     32 H32        -2.5065    1.6326   45.9758 H       1  ZINC000442864105    0.0800
     33 H33        -3.9103    1.1083   46.9364 H       1  ZINC000442864105    0.0800
     34 H34        -0.7461    3.2183   47.1034 H       1  ZINC000442864105    0.1700
     35 H35        -0.1772    3.8446   49.5663 H       1  ZINC000442864105    0.1400
     36 H36        -1.7681    3.4462   52.0986 H       1  ZINC000442864105    0.1200
     37 H37        -3.8745    2.5608   52.9629 H       1  ZINC000442864105    0.1200
     38 H38        -6.0468    1.6146   52.4698 H       1  ZINC000442864105    0.4100
     39 H39        -7.1984    1.2968   49.9947 H       1  ZINC000442864105    0.1000
     40 H40        -6.0879   -0.0869   50.1370 H       1  ZINC000442864105    0.1000
     41 H41        -8.6279    1.5844   52.1826 H       1  ZINC000442864105    0.4300
     42 H42       -10.1666   -1.3772   51.4592 H       1  ZINC000442864105    0.1700
     43 H43       -12.1332   -1.9057   55.2062 H       1  ZINC000442864105    0.1500
     44 H44       -10.8066   -0.0731   56.1736 H       1  ZINC000442864105    0.1500
     45 H45        -9.1795    2.9331   53.4451 H       1  ZINC000442864105    0.2300
     46 H46        -7.0863    2.8193   57.0863 H       1  ZINC000442864105    0.2300
     47 H47        -5.0692    1.4219   49.0171 H       1  ZINC000442864105    0.1200
@<TRIPOS>BOND
     1     1     2    1
     2     1    31    1
     3     1    32    1
     4     1    33    1
     5     2    30    1
     6     2     3    1
     7     3     4    2
     8     3    34    1
     9     4     5    1
    10     4    35    1
    11     5    30   ar
    12     5     6   ar
    13     6     7   ar
    14     6    36    1
    15     7     8   ar
    16     7    37    1
    17     8     9    1
    18     8    29   ar
    19     9    10    1
    20     9    38    1
    21    10    11    1
    22    10    39    1
    23    10    40    1
    24    11    12    2
    25    11    13   am
    26    13    14    1
    27    13    41    1
    28    14    23   ar
    29    14    15   ar
    30    15    16   ar
    31    15    42    1
    32    16    17    1
    33    16    21   ar
    34    17    18    1
    35    17    19    1
    36    17    20    1
    37    21    22   ar
    38    21    43    1
    39    22    23   ar
    40    22    44    1
    41    23    24    1
    42    24    28    1
    43    24    25    1
    44    25    26    2
    45    25    45    1
    46    26    27    1
    47    27    28    2
    48    27    46    1
    49    29    30   ar
    50    29    47    1
@<TRIPOS>SUBSTRUCTURE
     1 ZINC000442864105        1 TEMP              0 ****  ****    0 ROOT


##########                                Name:    ZINC000433961694
##########                DOCK_Rotatable_Bonds:                   7
##########                         Heavy_Atoms:                  29
##########                    Molecular_Weight:             413.472
##########                DOCK_Rotatable_Bonds:                   7
##########                       Formal_Charge:          0.00999992
##########                     HBond_Acceptors:                   8
##########                        HBond_Donors:                   0
##########                         Heavy_Atoms:                  29
##########                          Grid_Score:          -38.640579
##########                     Grid_vdw_energy:          -39.230259
##########                      Grid_es_energy:            0.589680
##########           Internal_energy_repulsive:            6.871005

@<TRIPOS>MOLECULE
ZINC000433961694
 49 52 1 0 0
SMALL
USER_CHARGES


@<TRIPOS>ATOM
      1 C1        -14.2385   -2.7620   58.5695 C.3     1  ZINC000433961694   -0.1000
      2 C2        -12.8651   -3.3823   58.5791 C.2     1  ZINC000433961694    0.1600
      3 C3        -12.4219   -4.2068   57.5972 C.2     1  ZINC000433961694   -0.3000
      4 C4        -13.1751   -4.6178   56.4075 C.2     1  ZINC000433961694    0.6200
      5 O5        -14.0464   -5.4621   56.5006 O.2     1  ZINC000433961694   -0.5100
      6 N6        -12.9021   -4.0602   55.2113 N.am    1  ZINC000433961694   -0.6100
      7 C7        -13.5784   -4.3785   53.9405 C.3     1  ZINC000433961694    0.1100
      8 C8        -13.3837   -3.1181   53.0612 C.3     1  ZINC000433961694   -0.1300
      9 C9        -11.9485   -2.6811   53.4566 C.3     1  ZINC000433961694    0.0800
     10 H10       -11.2047   -3.2456   52.8942 H       1  ZINC000433961694    0.1000
     11 O11       -11.7737   -1.2772   53.2545 O.3     1  ZINC000433961694   -0.2900
     12 C12       -10.5179   -0.8469   52.9714 C.ar    1  ZINC000433961694    0.1700
     13 C13        -9.9350    0.1852   53.7025 C.ar    1  ZINC000433961694   -0.2600
     14 C14        -8.6564    0.5939   53.3837 C.ar    1  ZINC000433961694    0.1400
     15 N15        -7.9882    0.0198   52.4012 N.ar    1  ZINC000433961694   -0.5100
     16 C16        -8.5063   -0.9607   51.6861 C.ar    1  ZINC000433961694    0.1400
     17 C17        -9.7774   -1.4302   51.9464 C.ar    1  ZINC000433961694   -0.2000
     18 C18       -11.8848   -3.0292   54.9585 C.3     1  ZINC000433961694    0.0600
     19 S19       -10.7791   -4.6951   58.0069 S.3     1  ZINC000433961694    0.2100
     20 C20       -10.8469   -3.7584   59.4353 C.2     1  ZINC000433961694    0.0400
     21 C21        -9.7269   -3.6330   60.4357 C.3     1  ZINC000433961694    0.1400
     22 O22        -9.1425   -2.3327   60.3362 O.3     1  ZINC000433961694   -0.3000
     23 C23        -9.6087   -1.3799   61.1866 C.ar    1  ZINC000433961694    0.1200
     24 C24        -9.2079   -1.3785   62.5144 C.ar    1  ZINC000433961694   -0.1800
     25 C25        -9.6824   -0.4097   63.3775 C.ar    1  ZINC000433961694   -0.1100
     26 C26       -10.5579    0.5593   62.9176 C.ar    1  ZINC000433961694    0.0600
     27 F27       -11.0215    1.5059   63.7627 F       1  ZINC000433961694   -0.1400
     28 C28       -10.9583    0.5594   61.5922 C.ar    1  ZINC000433961694   -0.1100
     29 C29       -10.4810   -0.4049   60.7257 C.ar    1  ZINC000433961694   -0.1200
     30 N30       -11.9944   -3.1676   59.5332 N.2     1  ZINC000433961694   -0.4500
     31 H31       -14.2011   -1.8047   58.0496 H       1  ZINC000433961694    0.0800
     32 H32       -14.9338   -3.4268   58.0571 H       1  ZINC000433961694    0.1000
     33 H33       -14.5739   -2.6059   59.5947 H       1  ZINC000433961694    0.0800
     34 H34       -13.1135   -5.2448   53.4700 H       1  ZINC000433961694    0.0800
     35 H35       -14.6392   -4.5620   54.1109 H       1  ZINC000433961694    0.1000
     36 H36       -13.4380   -3.3687   52.0017 H       1  ZINC000433961694    0.1000
     37 H37       -14.1111   -2.3475   53.3164 H       1  ZINC000433961694    0.1000
     38 H38       -10.4766    0.6594   54.5076 H       1  ZINC000433961694    0.1400
     39 H39        -8.1967    1.3938   53.9452 H       1  ZINC000433961694    0.1600
     40 H40        -7.9266   -1.4042   50.8901 H       1  ZINC000433961694    0.1700
     41 H41       -10.1955   -2.2333   51.3575 H       1  ZINC000433961694    0.1400
     42 H42       -12.0944   -2.1408   55.5543 H       1  ZINC000433961694    0.0900
     43 H43       -10.8982   -3.4204   55.2069 H       1  ZINC000433961694    0.0800
     44 H44       -10.1203   -3.7785   61.4418 H       1  ZINC000433961694    0.0900
     45 H45        -8.9690   -4.3887   60.2293 H       1  ZINC000433961694    0.1000
     46 H46        -8.5256   -2.1347   62.8736 H       1  ZINC000433961694    0.1400
     47 H47        -9.3706   -0.4084   64.4115 H       1  ZINC000433961694    0.1400
     48 H48       -11.6411    1.3160   61.2347 H       1  ZINC000433961694    0.1500
     49 H49       -10.7934   -0.4046   59.6919 H       1  ZINC000433961694    0.1400
@<TRIPOS>BOND
     1     1     2    1
     2     1    31    1
     3     1    32    1
     4     1    33    1
     5     2    30    1
     6     2     3    2
     7     3     4    1
     8     3    19    1
     9     4     5    2
    10     4     6   am
    11     6    18    1
    12     6     7    1
    13     7     8    1
    14     7    34    1
    15     7    35    1
    16     8     9    1
    17     8    36    1
    18     8    37    1
    19     9    10    1
    20     9    11    1
    21     9    18    1
    22    11    12    1
    23    12    17   ar
    24    12    13   ar
    25    13    14   ar
    26    13    38    1
    27    14    15   ar
    28    14    39    1
    29    15    16   ar
    30    16    17   ar
    31    16    40    1
    32    17    41    1
    33    18    42    1
    34    18    43    1
    35    19    20    1
    36    20    21    1
    37    20    30    2
    38    21    22    1
    39    21    44    1
    40    21    45    1
    41    22    23    1
    42    23    29   ar
    43    23    24   ar
    44    24    25   ar
    45    24    46    1
    46    25    26   ar
    47    25    47    1
    48    26    27    1
    49    26    28   ar
    50    28    29   ar
    51    28    48    1
    52    29    49    1
@<TRIPOS>SUBSTRUCTURE
     1 ZINC000433961694        1 TEMP              0 ****  ****    0 ROOT


##########                                Name:    ZINC000474251633
##########                DOCK_Rotatable_Bonds:                   8
##########                         Heavy_Atoms:                  28
##########                    Molecular_Weight:             416.931
##########                DOCK_Rotatable_Bonds:                   8
##########                       Formal_Charge:          0.00999953
##########                     HBond_Acceptors:                   8
##########                        HBond_Donors:                   2
##########                         Heavy_Atoms:                  28
##########                          Grid_Score:          -38.623539
##########                     Grid_vdw_energy:          -37.274117
##########                      Grid_es_energy:           -1.349421
##########           Internal_energy_repulsive:           11.615558

@<TRIPOS>MOLECULE
ZINC000474251633
 49 52 1 0 0
SMALL
USER_CHARGES


@<TRIPOS>ATOM
      1 O1        -12.0834   -4.9743   52.8157 O.2     1  ZINC000474251633   -0.5300
      2 C2        -12.2985   -4.0754   53.6010 C.2     1  ZINC000474251633    0.5100
      3 C3        -13.0828   -4.3455   54.8591 C.3     1  ZINC000474251633    0.1000
      4 N4        -12.4259   -3.6920   55.9939 N.am    1  ZINC000474251633   -0.7100
      5 C5        -12.3622   -4.3163   57.1866 C.2     1  ZINC000474251633    0.5900
      6 O6        -12.8490   -5.4233   57.3206 O.2     1  ZINC000474251633   -0.5000
      7 C7        -11.7053   -3.6605   58.3244 C.2     1  ZINC000474251633   -0.2300
      8 C8        -12.1793   -2.5812   58.9580 C.2     1  ZINC000474251633    0.0400
      9 Cl9       -13.6656   -1.8133   58.4944 Cl      1  ZINC000474251633   -0.0100
     10 C10       -11.3933   -2.1113   60.0243 C.ar    1  ZINC000474251633   -0.0900
     11 C11       -11.6237   -1.0057   60.8767 C.ar    1  ZINC000474251633   -0.0600
     12 C12       -10.7413   -0.7009   61.8652 C.ar    1  ZINC000474251633   -0.1200
     13 C13        -9.5987   -1.4676   62.0569 C.ar    1  ZINC000474251633   -0.0800
     14 C14        -9.3470   -2.5474   61.2450 C.ar    1  ZINC000474251633   -0.0900
     15 C15       -10.2401   -2.8811   60.2217 C.ar    1  ZINC000474251633   -0.1200
     16 S16       -10.1949   -4.1887   59.0446 S.3     1  ZINC000474251633    0.1700
     17 N17       -11.8313   -2.8361   53.3512 N.am    1  ZINC000474251633   -0.7200
     18 C18       -11.0689   -2.5735   52.1281 C.3     1  ZINC000474251633    0.2100
     19 C19       -10.0912   -1.4538   52.3762 C.2     1  ZINC000474251633    0.0500
     20 N20       -10.3093   -0.3938   53.1114 N.2     1  ZINC000474251633   -0.2700
     21 N21        -9.1558    0.4007   53.0869 N.pl3   1  ZINC000474251633   -0.3600
     22 C22        -8.9748    1.6790   53.7795 C.3     1  ZINC000474251633    0.1500
     23 C23        -8.1862    2.6576   52.8850 C.3     1  ZINC000474251633   -0.1400
     24 C24        -9.2818    3.5004   52.1861 C.3     1  ZINC000474251633   -0.1300
     25 C25       -10.3369    3.6847   53.3049 C.3     1  ZINC000474251633   -0.1200
     26 C26       -10.3422    2.3320   54.0465 C.3     1  ZINC000474251633   -0.1400
     27 C27        -8.2408   -0.2193   52.3127 C.2     1  ZINC000474251633    0.0600
     28 C28        -8.7919   -1.3713   51.8651 C.2     1  ZINC000474251633   -0.2600
     29 H29       -14.0935   -3.9523   54.7488 H       1  ZINC000474251633    0.1100
     30 H30       -13.1282   -5.4202   55.0354 H       1  ZINC000474251633    0.1100
     31 H31       -12.0367   -2.8099   55.8868 H       1  ZINC000474251633    0.4100
     32 H32       -12.5069   -0.3992   60.7410 H       1  ZINC000474251633    0.1300
     33 H33       -10.9304    0.1463   62.5078 H       1  ZINC000474251633    0.1400
     34 H34        -8.9063   -1.2140   62.8460 H       1  ZINC000474251633    0.1400
     35 H35        -8.4571   -3.1400   61.3975 H       1  ZINC000474251633    0.1400
     36 H36       -12.0000   -2.1181   53.9812 H       1  ZINC000474251633    0.4100
     37 H37       -10.5254   -3.4729   51.8386 H       1  ZINC000474251633    0.0900
     38 H38       -11.7521   -2.2886   51.3281 H       1  ZINC000474251633    0.0900
     39 H39        -8.4459    1.5224   54.7196 H       1  ZINC000474251633    0.1100
     40 H40        -7.5432    3.2954   53.4917 H       1  ZINC000474251633    0.0900
     41 H41        -7.5973    2.1111   52.1483 H       1  ZINC000474251633    0.0800
     42 H42        -8.8837    4.4639   51.8679 H       1  ZINC000474251633    0.0800
     43 H43        -9.7057    2.9582   51.3409 H       1  ZINC000474251633    0.0700
     44 H44       -10.0414    4.4883   53.9793 H       1  ZINC000474251633    0.0700
     45 H45       -11.3176    3.8878   52.8747 H       1  ZINC000474251633    0.0700
     46 H46       -11.1405    1.6979   53.6608 H       1  ZINC000474251633    0.0700
     47 H47       -10.4766    2.4930   55.1161 H       1  ZINC000474251633    0.0800
     48 H48        -7.2454    0.1378   52.0933 H       1  ZINC000474251633    0.1700
     49 H49        -8.3149   -2.0959   51.2218 H       1  ZINC000474251633    0.1500
@<TRIPOS>BOND
     1     1     2    2
     2     2     3    1
     3     2    17   am
     4     3     4    1
     5     3    29    1
     6     3    30    1
     7     4     5   am
     8     4    31    1
     9     5     6    2
    10     5     7    1
    11     7    16    1
    12     7     8    2
    13     8     9    1
    14     8    10    1
    15    10    15   ar
    16    10    11   ar
    17    11    12   ar
    18    11    32    1
    19    12    13   ar
    20    12    33    1
    21    13    14   ar
    22    13    34    1
    23    14    15   ar
    24    14    35    1
    25    15    16    1
    26    17    18    1
    27    17    36    1
    28    18    19    1
    29    18    37    1
    30    18    38    1
    31    19    28    1
    32    19    20    2
    33    20    21    1
    34    21    22    1
    35    21    27    1
    36    22    26    1
    37    22    23    1
    38    22    39    1
    39    23    24    1
    40    23    40    1
    41    23    41    1
    42    24    25    1
    43    24    42    1
    44    24    43    1
    45    25    26    1
    46    25    44    1
    47    25    45    1
    48    26    46    1
    49    26    47    1
    50    27    28    2
    51    27    48    1
    52    28    49    1
@<TRIPOS>SUBSTRUCTURE
     1 ZINC000474251633        1 TEMP              0 ****  ****    0 ROOT


##########                                Name:    ZINC000550217006
##########                DOCK_Rotatable_Bonds:                   7
##########                         Heavy_Atoms:                  27
##########                    Molecular_Weight:             367.404
##########                DOCK_Rotatable_Bonds:                   7
##########                       Formal_Charge:          0.00999951
##########                     HBond_Acceptors:                   7
##########                        HBond_Donors:                   3
##########                         Heavy_Atoms:                  27
##########                          Grid_Score:          -38.553280
##########                     Grid_vdw_energy:          -35.685913
##########                      Grid_es_energy:           -2.867367
##########           Internal_energy_repulsive:           10.966239

@<TRIPOS>MOLECULE
ZINC000550217006
 48 50 1 0 0
SMALL
USER_CHARGES


@<TRIPOS>ATOM
      1 C1         -6.8388    0.1018   50.4260 C.3     1  ZINC000550217006   -0.1500
      2 C2         -5.8927    1.1037   51.0910 C.3     1  ZINC000550217006    0.0500
      3 O3         -4.7039    1.2282   50.3080 O.3     1  ZINC000550217006   -0.3100
      4 C4         -3.7346    2.0528   50.7848 C.ar    1  ZINC000550217006    0.1400
      5 C5         -3.9331    2.7456   51.9701 C.ar    1  ZINC000550217006   -0.2100
      6 C6         -2.9458    3.5830   52.4531 C.ar    1  ZINC000550217006   -0.0800
      7 C7         -1.7613    3.7311   51.7558 C.ar    1  ZINC000550217006   -0.1600
      8 C8         -1.5612    3.0419   50.5738 C.ar    1  ZINC000550217006   -0.0700
      9 C9         -2.5425    2.1989   50.0899 C.ar    1  ZINC000550217006   -0.1200
     10 C10        -2.3237    1.4477   48.8019 C.3     1  ZINC000550217006   -0.0800
     11 C11        -2.8116    2.2973   47.6268 C.3     1  ZINC000550217006    0.1300
     12 N12        -2.4334    1.6519   46.3673 N.am    1  ZINC000550217006   -0.7200
     13 C13        -1.2570    1.9528   45.7825 C.2     1  ZINC000550217006    0.5600
     14 O14        -0.5107    2.7607   46.2993 O.2     1  ZINC000550217006   -0.5300
     15 C15        -0.8739    1.2991   44.5104 C.ar    1  ZINC000550217006   -0.0800
     16 C16        -1.5905    0.1927   44.0482 C.ar    1  ZINC000550217006   -0.1000
     17 C17        -1.2311   -0.4115   42.8684 C.ar    1  ZINC000550217006   -0.0500
     18 C18        -0.1476    0.0708   42.1156 C.ar    1  ZINC000550217006   -0.1300
     19 C19         0.5681    1.1772   42.5719 C.ar    1  ZINC000550217006    0.1800
     20 C20         0.1955    1.7881   43.7706 C.ar    1  ZINC000550217006   -0.0900
     21 N21         1.6407    1.7257   41.8899 N.am    1  ZINC000550217006   -0.6600
     22 C22         2.5989    1.0409   41.2731 C.2     1  ZINC000550217006    0.5100
     23 O23         3.5105    1.6457   40.7495 O.2     1  ZINC000550217006   -0.5100
     24 C24         2.5860   -0.4617   41.2058 C.3     1  ZINC000550217006    0.0900
     25 N25         1.4131   -0.8904   40.4438 N.am    1  ZINC000550217006   -0.7100
     26 C26         0.1765   -0.6341   40.8669 C.2     1  ZINC000550217006    0.5600
     27 O27        -0.7482   -1.0091   40.1726 O.2     1  ZINC000550217006   -0.5200
     28 H28        -6.3479   -0.8687   50.3539 H       1  ZINC000550217006    0.0700
     29 H29        -7.7456    0.0069   51.0232 H       1  ZINC000550217006    0.0800
     30 H30        -7.0968    0.4536   49.4271 H       1  ZINC000550217006    0.0700
     31 H31        -6.3836    2.0743   51.1630 H       1  ZINC000550217006    0.0600
     32 H32        -5.6347    0.7519   52.0899 H       1  ZINC000550217006    0.0600
     33 H33        -4.8586    2.6308   52.5147 H       1  ZINC000550217006    0.1300
     34 H34        -3.0999    4.1226   53.3758 H       1  ZINC000550217006    0.1300
     35 H35        -0.9910    4.3864   52.1348 H       1  ZINC000550217006    0.1300
     36 H36        -0.6351    3.1595   50.0307 H       1  ZINC000550217006    0.1300
     37 H37        -1.2613    1.2361   48.6809 H       1  ZINC000550217006    0.0800
     38 H38        -2.8800    0.5107   48.8287 H       1  ZINC000550217006    0.0800
     39 H39        -3.8963    2.3941   47.6741 H       1  ZINC000550217006    0.0700
     40 H40        -2.3561    3.2862   47.6794 H       1  ZINC000550217006    0.0700
     41 H41        -3.0297    1.0078   45.9541 H       1  ZINC000550217006    0.4000
     42 H42        -2.4257   -0.1873   44.6180 H       1  ZINC000550217006    0.1400
     43 H43        -1.7875   -1.2672   42.5157 H       1  ZINC000550217006    0.1500
     44 H44         0.7485    2.6434   44.1300 H       1  ZINC000550217006    0.1500
     45 H45         1.6979    2.6936   41.8591 H       1  ZINC000550217006    0.4200
     46 H46         3.4914   -0.8129   40.7108 H       1  ZINC000550217006    0.1300
     47 H47         2.5363   -0.8720   42.2143 H       1  ZINC000550217006    0.1000
     48 H48         1.5388   -1.3720   39.6113 H       1  ZINC000550217006    0.4200
@<TRIPOS>BOND
     1     1     2    1
     2     1    28    1
     3     1    29    1
     4     1    30    1
     5     2     3    1
     6     2    31    1
     7     2    32    1
     8     3     4    1
     9     4     9   ar
    10     4     5   ar
    11     5     6   ar
    12     5    33    1
    13     6     7   ar
    14     6    34    1
    15     7     8   ar
    16     7    35    1
    17     8     9   ar
    18     8    36    1
    19     9    10    1
    20    10    11    1
    21    10    37    1
    22    10    38    1
    23    11    12    1
    24    11    39    1
    25    11    40    1
    26    12    13   am
    27    12    41    1
    28    13    14    2
    29    13    15    1
    30    15    20   ar
    31    15    16   ar
    32    16    17   ar
    33    16    42    1
    34    17    18   ar
    35    17    43    1
    36    18    26    1
    37    18    19   ar
    38    19    20   ar
    39    19    21    1
    40    20    44    1
    41    21    22   am
    42    21    45    1
    43    22    23    2
    44    22    24    1
    45    24    25    1
    46    24    46    1
    47    24    47    1
    48    25    26   am
    49    25    48    1
    50    26    27    2
@<TRIPOS>SUBSTRUCTURE
     1 ZINC000550217006        1 TEMP              0 ****  ****    0 ROOT


##########                                Name:     oleObject80.pdb
##########                DOCK_Rotatable_Bonds:                  14
##########                         Heavy_Atoms:                  51
##########                    Molecular_Weight:             703.283
##########                DOCK_Rotatable_Bonds:                  14
##########                       Formal_Charge:         0.000299793
##########                     HBond_Acceptors:                  10
##########                        HBond_Donors:                   3
##########                         Heavy_Atoms:                  51
##########                          Grid_Score:          -38.523968
##########                     Grid_vdw_energy:          -37.985584
##########                      Grid_es_energy:           -0.538383
##########           Internal_energy_repulsive:           59.393158

@<TRIPOS>MOLECULE
oleObject80.pdb
 94 99 1 0 0
SMALL
NO_CHARGES


@<TRIPOS>ATOM
      1 C         -10.5593    3.4342   55.9025 C.ar    1  UNL        -0.0620
      2 C         -11.5021    3.1766   56.9078 C.ar    1  UNL        -0.0590
      3 C         -12.7931    2.7163   56.5835 C.ar    1  UNL        -0.0456
      4 C         -13.1460    2.5114   55.2253 C.ar    1  UNL        -0.0185
      5 C         -12.1839    2.7738   54.2246 C.ar    1  UNL        -0.0565
      6 C         -10.9010    3.2311   54.5596 C.ar    1  UNL        -0.0619
      7 C         -14.5521    2.0174   54.8405 C.3     1  UNL         0.0931
      8 C         -15.6328    3.1118   54.8979 C.ar    1  UNL         0.0683
      9 C         -15.3962    4.4157   54.3934 C.ar    1  UNL        -0.0272
     10 C         -16.4287    5.3680   54.4851 C.ar    1  UNL        -0.0559
     11 C         -17.6513    4.9979   55.0635 C.ar    1  UNL        -0.0435
     12 C         -17.8034    3.6838   55.5291 C.ar    1  UNL         0.0272
     13 N         -16.8221    2.7662   55.4460 N.ar    1  UNL        -0.2587
     14 C         -14.0689    4.8147   53.7579 C.3     1  UNL        -0.0379
     15 N         -14.5909    1.2100   53.5871 N.am    1  UNL        -0.2918
     16 C         -14.4318   -0.1797   53.6320 C.2     1  UNL         0.2180
     17 O         -14.5238   -0.7829   54.6888 O.2     1  UNL        -0.2772
     18 C         -14.4854   -0.9410   52.2837 C.3     1  UNL         0.0385
     19 C         -14.9886   -2.3951   52.4580 C.3     1  UNL        -0.0289
     20 C         -13.9260   -3.2958   53.1206 C.3     1  UNL        -0.0010
     21 N         -12.6627   -3.3035   52.3522 N.4     1  UNL        -0.3010
     22 C         -12.0977   -1.9478   52.1490 C.3     1  UNL        -0.0010
     23 C         -13.1230   -0.9575   51.5408 C.3     1  UNL        -0.0289
     24 C         -11.7011   -4.2845   52.9024 C.3     1  UNL         0.0222
     25 C         -10.8377   -3.7221   54.0504 C.3     1  UNL         0.0661
     26 O         -11.6745   -3.6127   55.2156 O.3     1  UNL        -0.3432
     27 C         -11.1829   -3.4425   56.4956 C.ar    1  UNL         0.0937
     28 C         -10.9519   -4.5314   57.3604 C.ar    1  UNL        -0.0284
     29 C         -10.4526   -4.3127   58.6549 C.ar    1  UNL        -0.0381
     30 C         -10.1627   -3.0124   59.1029 C.ar    1  UNL         0.0319
     31 C         -10.4148   -1.9241   58.2454 C.ar    1  UNL        -0.0194
     32 C         -10.9155   -2.1368   56.9504 C.ar    1  UNL         0.0727
     33 CL        -11.2088   -0.7486   55.9195 Cl      1  UNL        -0.0814
     34 N          -9.6853   -2.8406   60.4009 N.pl3   1  UNL        -0.3136
     35 C         -10.0156   -1.9208   61.3957 C.ar    1  UNL         0.0489
     36 C         -11.2997   -1.3481   61.4126 C.ar    1  UNL         0.0488
     37 N         -11.7038   -0.4669   62.3492 N.ar    1  UNL        -0.2543
     38 C         -10.8641   -0.1053   63.3442 C.ar    1  UNL         0.0703
     39 C          -9.5562   -0.6526   63.4085 C.ar    1  UNL        -0.0339
     40 C          -9.1321   -1.5686   62.4324 C.ar    1  UNL        -0.0371
     41 C         -11.3888    0.8784   64.3559 C.ar    1  UNL         0.0009
     42 C         -12.7738    0.9755   64.6506 C.ar    1  UNL        -0.0402
     43 C         -13.2780    1.8933   65.5958 C.ar    1  UNL         0.0375
     44 C         -12.3730    2.7415   66.2672 C.ar    1  UNL        -0.0496
     45 C         -11.0003    2.6711   65.9923 C.ar    1  UNL        -0.0608
     46 C         -10.5145    1.7545   65.0489 C.ar    1  UNL        -0.0528
     47 C         -14.7635    1.9447   65.8596 C.2     1  UNL         0.2403
     48 O         -15.5422    1.1469   65.3691 O.2     1  UNL        -0.2722
     49 N         -15.2280    2.9416   66.6913 N.am    1  UNL        -0.3251
     50 C         -14.8850    1.9294   52.3272 C.3     1  UNL         0.0037
     51 C         -13.7758    2.4490   57.7200 C.3     1  UNL        -0.0394
     52 H          -9.5664    3.7882   56.1645 H       1  UNL         0.0623
     53 H         -11.2250    3.3360   57.9461 H       1  UNL         0.0626
     54 H         -12.4194    2.6174   53.1767 H       1  UNL         0.0627
     55 H         -10.1726    3.4263   53.7777 H       1  UNL         0.0623
     56 H         -14.8253    1.3272   55.6427 H       1  UNL         0.0626
     57 H         -16.2870    6.3791   54.1140 H       1  UNL         0.0627
     58 H         -18.4645    5.7127   55.1471 H       1  UNL         0.0639
     59 H         -18.7377    3.3552   55.9824 H       1  UNL         0.0840
     60 H         -13.2635    4.8234   54.5029 H       1  UNL         0.0280
     61 H         -14.1177    5.8174   53.3153 H       1  UNL         0.0280
     62 H         -13.7860    4.1194   52.9579 H       1  UNL         0.0280
     63 H         -15.1872   -0.4088   51.6311 H       1  UNL         0.0402
     64 H         -15.2364   -2.8097   51.4723 H       1  UNL         0.0288
     65 H         -15.9121   -2.4216   53.0463 H       1  UNL         0.0288
     66 H         -14.3277   -4.3150   53.1892 H       1  UNL         0.0431
     67 H         -13.7400   -2.9421   54.1439 H       1  UNL         0.0431
     68 H         -11.2353   -1.9913   51.4735 H       1  UNL         0.0431
     69 H         -11.7382   -1.5565   53.1088 H       1  UNL         0.0431
     70 H         -13.2995   -1.2473   50.4968 H       1  UNL         0.0288
     71 H         -12.6953    0.0529   51.5143 H       1  UNL         0.0288
     72 H         -11.0220   -4.6101   52.1036 H       1  UNL         0.0455
     73 H         -12.2379   -5.1727   53.2608 H       1  UNL         0.0455
     74 H         -10.4429   -2.7356   53.7786 H       1  UNL         0.0586
     75 H         -10.0010   -4.4049   54.2460 H       1  UNL         0.0586
     76 H         -11.1562   -5.5489   57.0437 H       1  UNL         0.0652
     77 H         -10.2806   -5.1617   59.3109 H       1  UNL         0.0644
     78 H         -10.2447   -0.9069   58.5838 H       1  UNL         0.0659
     79 H          -8.9627   -3.4970   60.6675 H       1  UNL         0.1528
     80 H         -12.0294   -1.5964   60.6430 H       1  UNL         0.0861
     81 H          -8.8671   -0.3700   64.1967 H       1  UNL         0.0646
     82 H          -8.1408   -2.0056   62.4987 H       1  UNL         0.0644
     83 H         -13.4771    0.3395   64.1245 H       1  UNL         0.0638
     84 H         -12.7198    3.4611   67.0021 H       1  UNL         0.0631
     85 H         -10.3091    3.3283   66.5128 H       1  UNL         0.0623
     86 H          -9.4447    1.7205   64.8637 H       1  UNL         0.0630
     87 H         -16.2160    3.0122   66.8946 H       1  UNL         0.1458
     88 H         -14.5665    3.5944   67.0920 H       1  UNL         0.1458
     89 H         -14.8953    3.0150   52.4704 H       1  UNL         0.0433
     90 H         -15.8690    1.6345   51.9446 H       1  UNL         0.0433
     91 H         -14.1204    1.6853   51.5792 H       1  UNL         0.0433
     92 H         -13.3180    2.6221   58.7019 H       1  UNL         0.0280
     93 H         -14.1262    1.4098   57.7063 H       1  UNL         0.0280
     94 H         -14.6518    3.1055   57.6504 H       1  UNL         0.0280
@<TRIPOS>BOND
     1     1     2   ar
     2     1     6   ar
     3     1    52    1
     4     2     3   ar
     5     2    53    1
     6     3     4   ar
     7     3    51    1
     8     4     5   ar
     9     4     7    1
    10     5     6   ar
    11     5    54    1
    12     6    55    1
    13     7     8    1
    14     7    15    1
    15     7    56    1
    16     8     9   ar
    17     8    13   ar
    18     9    10   ar
    19     9    14    1
    20    10    11   ar
    21    10    57    1
    22    11    12   ar
    23    11    58    1
    24    12    13   ar
    25    12    59    1
    26    14    60    1
    27    14    61    1
    28    14    62    1
    29    15    16   am
    30    15    50    1
    31    16    17    2
    32    16    18    1
    33    18    19    1
    34    18    23    1
    35    18    63    1
    36    19    20    1
    37    19    64    1
    38    19    65    1
    39    20    21    1
    40    20    66    1
    41    20    67    1
    42    21    22    1
    43    21    24    1
    44    22    23    1
    45    22    68    1
    46    22    69    1
    47    23    70    1
    48    23    71    1
    49    24    25    1
    50    24    72    1
    51    24    73    1
    52    25    26    1
    53    25    74    1
    54    25    75    1
    55    26    27    1
    56    27    28   ar
    57    27    32   ar
    58    28    29   ar
    59    28    76    1
    60    29    30   ar
    61    29    77    1
    62    30    31   ar
    63    30    34    1
    64    31    32   ar
    65    31    78    1
    66    32    33    1
    67    34    35    1
    68    34    79    1
    69    35    36   ar
    70    35    40   ar
    71    36    37   ar
    72    36    80    1
    73    37    38   ar
    74    38    39   ar
    75    38    41    1
    76    39    40   ar
    77    39    81    1
    78    40    82    1
    79    41    42   ar
    80    41    46   ar
    81    42    43   ar
    82    42    83    1
    83    43    44   ar
    84    43    47    1
    85    44    45   ar
    86    44    84    1
    87    45    46   ar
    88    45    85    1
    89    46    86    1
    90    47    48    2
    91    47    49   am
    92    49    87    1
    93    49    88    1
    94    50    89    1
    95    50    90    1
    96    50    91    1
    97    51    92    1
    98    51    93    1
    99    51    94    1
@<TRIPOS>SUBSTRUCTURE
     1 UNL         1 TEMP              0 ****  ****    0 ROOT


##########                                Name:    ZINC000600609084
##########                DOCK_Rotatable_Bonds:                   8
##########                         Heavy_Atoms:                  30
##########                    Molecular_Weight:             422.548
##########                DOCK_Rotatable_Bonds:                   8
##########                       Formal_Charge:           0.0100005
##########                     HBond_Acceptors:                   6
##########                        HBond_Donors:                   2
##########                         Heavy_Atoms:                  30
##########                          Grid_Score:          -38.518826
##########                     Grid_vdw_energy:          -37.689854
##########                      Grid_es_energy:           -0.828972
##########           Internal_energy_repulsive:           27.313078

@<TRIPOS>MOLECULE
ZINC000600609084
 56 59 1 0 0
SMALL
USER_CHARGES


@<TRIPOS>ATOM
      1 O1        -11.3183   -3.0653   51.6196 O.2     1  ZINC000600609084   -0.5300
      2 C2        -12.3176   -3.3219   52.2571 C.2     1  ZINC000600609084    0.5200
      3 C3        -12.2765   -4.3810   53.3285 C.3     1  ZINC000600609084   -0.1500
      4 C4        -13.3084   -4.0535   54.4095 C.3     1  ZINC000600609084    0.1300
      5 N5        -13.7061   -5.2858   55.0944 N.am    1  ZINC000600609084   -1.1200
      6 S6        -14.1734   -5.2367   56.6825 S.o2    1  ZINC000600609084    2.7000
      7 O7        -15.2035   -4.2617   56.7677 O.2     1  ZINC000600609084   -0.9600
      8 O8        -14.3450   -6.5866   57.0920 O.2     1  ZINC000600609084   -0.9500
      9 C9        -12.8129   -4.6054   57.6072 C.ar    1  ZINC000600609084   -0.6700
     10 C10       -11.6055   -5.3008   57.6133 C.ar    1  ZINC000600609084   -0.0400
     11 C11       -10.5352   -4.8407   58.3172 C.ar    1  ZINC000600609084   -0.1200
     12 C12       -10.6460   -3.6467   59.0496 C.ar    1  ZINC000600609084   -0.0100
     13 C13        -9.5628   -3.1398   59.7878 C.ar    1  ZINC000600609084   -0.1200
     14 C14        -9.7070   -1.9801   60.4850 C.ar    1  ZINC000600609084   -0.0900
     15 C15       -10.9148   -1.2844   60.4789 C.ar    1  ZINC000600609084   -0.1200
     16 C16       -11.9851   -1.7447   59.7757 C.ar    1  ZINC000600609084   -0.0900
     17 C17       -11.8743   -2.9392   59.0433 C.ar    1  ZINC000600609084   -0.0800
     18 C18       -12.9554   -3.4426   58.3004 C.ar    1  ZINC000600609084    0.0200
     19 N19       -13.4634   -2.6560   52.0114 N.am    1  ZINC000600609084   -0.7200
     20 C20       -13.5033   -1.6265   50.9700 C.3     1  ZINC000600609084    0.1400
     21 H21       -12.6734   -1.7644   50.2769 H       1  ZINC000600609084    0.1000
     22 C22       -14.8404   -1.6956   50.2115 C.3     1  ZINC000600609084   -0.1300
     23 C23       -15.5344   -0.3333   50.4168 C.3     1  ZINC000600609084   -0.1300
     24 C24       -14.9117    0.2171   51.7238 C.3     1  ZINC000600609084   -0.1200
     25 C25       -13.4302   -0.2247   51.6096 C.3     1  ZINC000600609084   -0.0700
     26 H26       -12.8764    0.4601   50.9672 H       1  ZINC000600609084    0.0900
     27 C27       -12.7945   -0.2963   52.9741 C.ar    1  ZINC000600609084   -0.0600
     28 C28       -11.4876    0.1183   53.1504 C.ar    1  ZINC000600609084   -0.1100
     29 C29       -10.9045    0.0526   54.4019 C.ar    1  ZINC000600609084   -0.1200
     30 C30       -11.6285   -0.4274   55.4774 C.ar    1  ZINC000600609084   -0.1200
     31 C31       -12.9356   -0.8412   55.3012 C.ar    1  ZINC000600609084   -0.1200
     32 C32       -13.5201   -0.7714   54.0505 C.ar    1  ZINC000600609084   -0.1100
     33 H33       -12.5062   -5.3516   52.8889 H       1  ZINC000600609084    0.1000
     34 H34       -11.2815   -4.4097   53.7728 H       1  ZINC000600609084    0.1000
     35 H35       -12.8726   -3.3615   55.1302 H       1  ZINC000600609084    0.0900
     36 H36       -14.1837   -3.5949   53.9492 H       1  ZINC000600609084    0.0800
     37 H37       -13.6957   -6.1307   54.6179 H       1  ZINC000600609084    0.4200
     38 H38       -11.5178   -6.2191   57.0516 H       1  ZINC000600609084    0.1400
     39 H39        -9.6056   -5.3905   58.3131 H       1  ZINC000600609084    0.1400
     40 H40        -8.6209   -3.6683   59.8022 H       1  ZINC000600609084    0.1300
     41 H41        -8.8732   -1.5930   61.0518 H       1  ZINC000600609084    0.1300
     42 H42       -11.0027   -0.3664   61.0411 H       1  ZINC000600609084    0.1300
     43 H43       -12.9149   -1.1953   59.7805 H       1  ZINC000600609084    0.1300
     44 H44       -13.8958   -2.9117   58.2826 H       1  ZINC000600609084    0.1500
     45 H45       -14.2615   -2.8585   52.5242 H       1  ZINC000600609084    0.4000
     46 H46       -14.6593   -1.8662   49.1503 H       1  ZINC000600609084    0.0800
     47 H47       -15.4595   -2.4952   50.6183 H       1  ZINC000600609084    0.0700
     48 H48       -15.3201    0.3338   49.5818 H       1  ZINC000600609084    0.0700
     49 H49       -16.6099   -0.4668   50.5333 H       1  ZINC000600609084    0.0700
     50 H50       -14.9888    1.3038   51.7608 H       1  ZINC000600609084    0.0700
     51 H51       -15.3834   -0.2346   52.5965 H       1  ZINC000600609084    0.0700
     52 H52       -10.9222    0.4933   52.3102 H       1  ZINC000600609084    0.1200
     53 H53        -9.8833    0.3758   54.5395 H       1  ZINC000600609084    0.1200
     54 H54       -11.1726   -0.4795   56.4551 H       1  ZINC000600609084    0.1200
     55 H55       -13.5010   -1.2166   56.1414 H       1  ZINC000600609084    0.1200
     56 H56       -14.5413   -1.0947   53.9129 H       1  ZINC000600609084    0.1200
@<TRIPOS>BOND
     1     1     2    2
     2     2     3    1
     3     2    19   am
     4     3     4    1
     5     3    33    1
     6     3    34    1
     7     4     5    1
     8     4    35    1
     9     4    36    1
    10     5     6   am
    11     5    37    1
    12     6     7    2
    13     6     8    2
    14     6     9    1
    15     9    18   ar
    16     9    10   ar
    17    10    11   ar
    18    10    38    1
    19    11    12   ar
    20    11    39    1
    21    12    17   ar
    22    12    13   ar
    23    13    14   ar
    24    13    40    1
    25    14    15   ar
    26    14    41    1
    27    15    16   ar
    28    15    42    1
    29    16    17   ar
    30    16    43    1
    31    17    18   ar
    32    18    44    1
    33    19    20    1
    34    19    45    1
    35    20    21    1
    36    20    25    1
    37    20    22    1
    38    22    23    1
    39    22    46    1
    40    22    47    1
    41    23    24    1
    42    23    48    1
    43    23    49    1
    44    24    25    1
    45    24    50    1
    46    24    51    1
    47    25    26    1
    48    25    27    1
    49    27    32   ar
    50    27    28   ar
    51    28    29   ar
    52    28    52    1
    53    29    30   ar
    54    29    53    1
    55    30    31   ar
    56    30    54    1
    57    31    32   ar
    58    31    55    1
    59    32    56    1
@<TRIPOS>SUBSTRUCTURE
     1 ZINC000600609084        1 TEMP              0 ****  ****    0 ROOT


##########                                Name:    ZINC001573443776
##########                DOCK_Rotatable_Bonds:                   8
##########                         Heavy_Atoms:                  28
##########                    Molecular_Weight:             386.457
##########                DOCK_Rotatable_Bonds:                   8
##########                       Formal_Charge:          0.00999954
##########                     HBond_Acceptors:                  10
##########                        HBond_Donors:                   3
##########                         Heavy_Atoms:                  28
##########                          Grid_Score:          -38.508602
##########                     Grid_vdw_energy:          -36.156708
##########                      Grid_es_energy:           -2.351896
##########           Internal_energy_repulsive:           36.042671

@<TRIPOS>MOLECULE
ZINC001573443776
 54 56 1 0 0
SMALL
USER_CHARGES


@<TRIPOS>ATOM
      1 C1         -7.3602    0.9038   51.4010 C.3     1  ZINC001573443776   -0.1800
      2 C2         -8.2018   -0.3107   51.6974 C.2     1  ZINC001573443776    0.5100
      3 O3         -7.7177   -1.4195   51.6117 O.2     1  ZINC001573443776   -0.5400
      4 N4         -9.4922   -0.1647   52.0576 N.am    1  ZINC001573443776   -0.6100
      5 C5        -10.0926    1.1720   52.1656 C.3     1  ZINC001573443776    0.1100
      6 C6        -10.7249    1.3178   53.5534 C.3     1  ZINC001573443776   -0.1300
      7 C7        -11.7067    0.1671   53.7857 C.3     1  ZINC001573443776   -0.1000
      8 C8        -10.9551   -1.1651   53.7350 C.3     1  ZINC001573443776   -0.1200
      9 H9        -10.1723   -1.1704   54.4935 H       1  ZINC001573443776    0.1000
     10 C10       -11.9168   -2.2955   53.9968 C.2     1  ZINC001573443776    0.5200
     11 O11       -12.5032   -2.8189   53.0732 O.2     1  ZINC001573443776   -0.5300
     12 N12       -12.1253   -2.7246   55.2573 N.am    1  ZINC001573443776   -0.7300
     13 C13       -13.0589   -3.8246   55.5115 C.3     1  ZINC001573443776    0.1100
     14 C14       -13.4361   -3.8409   56.9943 C.3     1  ZINC001573443776    0.1400
     15 H15       -13.7641   -2.8465   57.2967 H       1  ZINC001573443776    0.0900
     16 C16       -14.5699   -4.8429   57.2211 C.3     1  ZINC001573443776   -0.1700
     17 N17       -12.2707   -4.2339   57.7903 N.pl3   1  ZINC001573443776   -0.7200
     18 C18       -11.7475   -3.3593   58.7343 C.ar    1  ZINC001573443776    0.4300
     19 C19       -10.3706   -3.1674   58.8045 C.ar    1  ZINC001573443776   -0.2500
     20 C20        -9.8585   -2.2959   59.7455 C.ar    1  ZINC001573443776    0.0100
     21 C21       -10.7512   -1.6360   60.5968 C.ar    1  ZINC001573443776   -0.1400
     22 C22       -10.2503   -0.6892   61.6243 C.2     1  ZINC001573443776    0.2400
     23 N23       -10.2997    0.6272   61.5729 N.2     1  ZINC001573443776   -0.3000
     24 N24        -9.7647    1.0844   62.6524 N.pl3   1  ZINC001573443776   -0.2300
     25 N25        -9.3780    0.0999   63.3862 N.2     1  ZINC001573443776   -0.0500
     26 N26        -9.6649   -1.0063   62.7880 N.2     1  ZINC001573443776   -0.2700
     27 C27       -12.1153   -1.8789   60.4668 C.ar    1  ZINC001573443776    0.2300
     28 C28       -13.0881   -1.1748   61.3773 C.3     1  ZINC001573443776   -0.1200
     29 N29       -12.5656   -2.7144   59.5526 N.ar    1  ZINC001573443776   -0.5400
     30 C30       -10.3271   -1.3393   52.3438 C.3     1  ZINC001573443776    0.1200
     31 H31        -7.3717    1.1010   50.3291 H       1  ZINC001573443776    0.0900
     32 H32        -7.7645    1.7647   51.9332 H       1  ZINC001573443776    0.0800
     33 H33        -6.3355    0.7239   51.7263 H       1  ZINC001573443776    0.1000
     34 H34        -9.3213    1.9307   52.0340 H       1  ZINC001573443776    0.1000
     35 H35       -10.8596    1.2910   51.4004 H       1  ZINC001573443776    0.0700
     36 H36        -9.9442    1.2892   54.3137 H       1  ZINC001573443776    0.0700
     37 H37       -11.2566    2.2674   53.6129 H       1  ZINC001573443776    0.0800
     38 H38       -12.1763    0.2821   54.7627 H       1  ZINC001573443776    0.0800
     39 H39       -12.4730    0.1815   53.0108 H       1  ZINC001573443776    0.0700
     40 H40       -11.6572   -2.3052   55.9961 H       1  ZINC001573443776    0.4000
     41 H41       -13.9569   -3.6855   54.9097 H       1  ZINC001573443776    0.0900
     42 H42       -12.5867   -4.7706   55.2463 H       1  ZINC001573443776    0.0800
     43 H43       -15.4370   -4.5506   56.6287 H       1  ZINC001573443776    0.0700
     44 H44       -14.2419   -5.8375   56.9186 H       1  ZINC001573443776    0.0700
     45 H45       -14.8387   -4.8546   58.2773 H       1  ZINC001573443776    0.0700
     46 H46       -11.8644   -5.1047   57.6582 H       1  ZINC001573443776    0.4100
     47 H47        -9.7106   -3.6942   58.1313 H       1  ZINC001573443776    0.1400
     48 H48        -8.7944   -2.1282   59.8225 H       1  ZINC001573443776    0.1400
     49 H49        -9.6683    2.0232   62.8768 H       1  ZINC001573443776    0.4800
     50 H50       -13.3958   -0.2334   60.9220 H       1  ZINC001573443776    0.0800
     51 H51       -13.9628   -1.8063   61.5324 H       1  ZINC001573443776    0.0800
     52 H52       -12.6094   -0.9753   62.3359 H       1  ZINC001573443776    0.1100
     53 H53       -11.1148   -1.4256   51.5954 H       1  ZINC001573443776    0.0800
     54 H54        -9.7089   -2.2371   52.3318 H       1  ZINC001573443776    0.0900
@<TRIPOS>BOND
     1     1     2    1
     2     1    31    1
     3     1    32    1
     4     1    33    1
     5     2     3    2
     6     2     4   am
     7     4    30    1
     8     4     5    1
     9     5     6    1
    10     5    34    1
    11     5    35    1
    12     6     7    1
    13     6    36    1
    14     6    37    1
    15     7     8    1
    16     7    38    1
    17     7    39    1
    18     8     9    1
    19     8    10    1
    20     8    30    1
    21    10    11    2
    22    10    12   am
    23    12    13    1
    24    12    40    1
    25    13    14    1
    26    13    41    1
    27    13    42    1
    28    14    15    1
    29    14    16    1
    30    14    17    1
    31    16    43    1
    32    16    44    1
    33    16    45    1
    34    17    18    1
    35    17    46    1
    36    18    29   ar
    37    18    19   ar
    38    19    20   ar
    39    19    47    1
    40    20    21   ar
    41    20    48    1
    42    21    22    1
    43    21    27   ar
    44    22    26    1
    45    22    23    2
    46    23    24    1
    47    24    25    1
    48    24    49    1
    49    25    26    2
    50    27    28    1
    51    27    29   ar
    52    28    50    1
    53    28    51    1
    54    28    52    1
    55    30    53    1
    56    30    54    1
@<TRIPOS>SUBSTRUCTURE
     1 ZINC001573443776        1 TEMP              0 ****  ****    0 ROOT


##########                                Name:    ZINC000479580180
##########                DOCK_Rotatable_Bonds:                   5
##########                         Heavy_Atoms:                  30
##########                    Molecular_Weight:             404.444
##########                DOCK_Rotatable_Bonds:                   5
##########                       Formal_Charge:           0.0299995
##########                     HBond_Acceptors:                   7
##########                        HBond_Donors:                   1
##########                         Heavy_Atoms:                  30
##########                          Grid_Score:          -38.452183
##########                     Grid_vdw_energy:          -39.052757
##########                      Grid_es_energy:            0.600573
##########           Internal_energy_repulsive:           15.316770

@<TRIPOS>MOLECULE
ZINC000479580180
 51 55 1 0 0
SMALL
USER_CHARGES


@<TRIPOS>ATOM
      1 O1        -13.6308   -5.9689   55.4938 O.2     1  ZINC000479580180   -0.5200
      2 C2        -13.5323   -4.8084   55.8323 C.2     1  ZINC000479580180    0.5200
      3 C3        -13.6907   -4.4305   57.2825 C.3     1  ZINC000479580180   -0.0700
      4 C4        -12.3347   -4.1618   57.8826 C.2     1  ZINC000479580180   -0.1600
      5 C5        -11.2391   -4.9243   57.7686 C.2     1  ZINC000479580180    0.0300
      6 O6        -10.2147   -4.3671   58.4385 O.3     1  ZINC000479580180   -0.1900
      7 C7        -10.5935   -3.2126   59.0224 C.ar    1  ZINC000479580180    0.0800
      8 C8         -9.9323   -2.2766   59.8070 C.ar    1  ZINC000479580180   -0.1400
      9 C9        -10.6105   -1.1656   60.2681 C.ar    1  ZINC000479580180    0.1300
     10 F10        -9.9649   -0.2564   61.0308 F       1  ZINC000479580180   -0.1300
     11 C11       -11.9501   -0.9738   59.9549 C.ar    1  ZINC000479580180   -0.1600
     12 C12       -12.6177   -1.8849   59.1839 C.ar    1  ZINC000479580180   -0.0400
     13 C13       -11.9470   -3.0085   58.7043 C.ar    1  ZINC000479580180   -0.1200
     14 N14       -13.2755   -3.8575   54.9123 N.am    1  ZINC000479580180   -0.6200
     15 C15       -13.1415   -2.4491   55.3088 C.3     1  ZINC000479580180    0.1100
     16 C16       -11.8064   -1.9136   54.7820 C.3     1  ZINC000479580180   -0.1300
     17 C17       -11.7255   -2.1521   53.2724 C.3     1  ZINC000479580180   -0.0100
     18 C18       -10.4279   -1.5958   52.7451 C.2     1  ZINC000479580180    0.3000
     19 N19       -10.0068   -0.3673   52.8899 N.2     1  ZINC000479580180   -0.5300
     20 C20        -8.8151   -0.2234   52.2948 C.2     1  ZINC000479580180    0.2700
     21 C21        -8.0182    1.0276   52.2456 C.ar    1  ZINC000479580180   -0.0200
     22 C22        -8.5031    2.1893   52.8427 C.ar    1  ZINC000479580180   -0.0800
     23 C23        -7.7576    3.3498   52.7944 C.ar    1  ZINC000479580180   -0.1300
     24 C24        -6.5315    3.3611   52.1543 C.ar    1  ZINC000479580180   -0.1000
     25 C25        -6.0454    2.2106   51.5599 C.ar    1  ZINC000479580180   -0.1200
     26 C26        -6.7798    1.0430   51.6072 C.ar    1  ZINC000479580180   -0.0800
     27 N27        -8.4684   -1.3745   51.7620 N.2     1  ZINC000479580180   -0.3000
     28 N28        -9.5022   -2.2804   52.0495 N.pl3   1  ZINC000479580180   -0.4800
     29 C29       -11.7896   -3.6544   52.9875 C.3     1  ZINC000479580180   -0.1400
     30 C30       -13.1185   -4.2104   53.4947 C.3     1  ZINC000479580180    0.1200
     31 H31       -14.3061   -3.5341   57.3593 H       1  ZINC000479580180    0.1100
     32 H32       -14.1706   -5.2479   57.8207 H       1  ZINC000479580180    0.1100
     33 H33       -11.1862   -5.8523   57.2185 H       1  ZINC000479580180    0.2100
     34 H34        -8.8908   -2.4175   60.0560 H       1  ZINC000479580180    0.1500
     35 H35       -12.4676   -0.1000   60.3226 H       1  ZINC000479580180    0.1400
     36 H36       -13.6594   -1.7318   58.9435 H       1  ZINC000479580180    0.1300
     37 H37       -13.9610   -1.8701   54.8831 H       1  ZINC000479580180    0.0800
     38 H38       -13.1629   -2.3719   56.3958 H       1  ZINC000479580180    0.0900
     39 H39       -11.7372   -0.8450   54.9858 H       1  ZINC000479580180    0.0900
     40 H40       -10.9854   -2.4327   55.2769 H       1  ZINC000479580180    0.0700
     41 H41       -12.5608   -1.6534   52.7808 H       1  ZINC000479580180    0.1200
     42 H42        -9.4607    2.1818   53.3421 H       1  ZINC000479580180    0.1400
     43 H43        -8.1325    4.2509   53.2568 H       1  ZINC000479580180    0.1300
     44 H44        -5.9517    4.2716   52.1183 H       1  ZINC000479580180    0.1300
     45 H45        -5.0875    2.2250   51.0611 H       1  ZINC000479580180    0.1300
     46 H46        -6.3993    0.1452   51.1430 H       1  ZINC000479580180    0.1300
     47 H47        -9.5434   -3.2147   51.7920 H       1  ZINC000479580180    0.4400
     48 H48       -11.7084   -3.8247   51.9140 H       1  ZINC000479580180    0.0900
     49 H49       -10.9688   -4.1570   53.4991 H       1  ZINC000479580180    0.0700
     50 H50       -13.1271   -5.2948   53.3836 H       1  ZINC000479580180    0.1000
     51 H51       -13.9385   -3.7759   52.9230 H       1  ZINC000479580180    0.0800
@<TRIPOS>BOND
     1     1     2    2
     2     2     3    1
     3     2    14   am
     4     3     4    1
     5     3    31    1
     6     3    32    1
     7     4    13    1
     8     4     5    2
     9     5     6    1
    10     5    33    1
    11     6     7    1
    12     7    13   ar
    13     7     8   ar
    14     8     9   ar
    15     8    34    1
    16     9    10    1
    17     9    11   ar
    18    11    12   ar
    19    11    35    1
    20    12    13   ar
    21    12    36    1
    22    14    30    1
    23    14    15    1
    24    15    16    1
    25    15    37    1
    26    15    38    1
    27    16    17    1
    28    16    39    1
    29    16    40    1
    30    17    18    1
    31    17    29    1
    32    17    41    1
    33    18    28    1
    34    18    19    2
    35    19    20    1
    36    20    21    1
    37    20    27    2
    38    21    26   ar
    39    21    22   ar
    40    22    23   ar
    41    22    42    1
    42    23    24   ar
    43    23    43    1
    44    24    25   ar
    45    24    44    1
    46    25    26   ar
    47    25    45    1
    48    26    46    1
    49    27    28    1
    50    28    47    1
    51    29    30    1
    52    29    48    1
    53    29    49    1
    54    30    50    1
    55    30    51    1
@<TRIPOS>SUBSTRUCTURE
     1 ZINC000479580180        1 TEMP              0 ****  ****    0 ROOT


##########                                Name:    ZINC000821442454
##########                DOCK_Rotatable_Bonds:                   6
##########                         Heavy_Atoms:                  26
##########                    Molecular_Weight:             398.873
##########                DOCK_Rotatable_Bonds:                   6
##########                       Formal_Charge:          -0.0399996
##########                     HBond_Acceptors:                  11
##########                        HBond_Donors:                   2
##########                         Heavy_Atoms:                  26
##########                          Grid_Score:          -38.420834
##########                     Grid_vdw_energy:          -38.277538
##########                      Grid_es_energy:           -0.143295
##########           Internal_energy_repulsive:           12.579790

@<TRIPOS>MOLECULE
ZINC000821442454
 45 47 1 0 0
SMALL
USER_CHARGES


@<TRIPOS>ATOM
      1 C1        -11.0493   -1.8910   51.9470 C.3     1  ZINC000821442454   -0.1500
      2 C2        -11.3385   -2.3403   53.3807 C.3     1  ZINC000821442454   -0.6300
      3 S3        -12.4075   -3.8055   53.3511 S.o2    1  ZINC000821442454    2.6000
      4 O4        -13.7057   -3.4663   52.8836 O.2     1  ZINC000821442454   -0.9500
      5 O5        -11.7071   -4.9231   52.8223 O.2     1  ZINC000821442454   -0.9500
      6 N6        -12.6343   -4.1837   54.9474 N.am    1  ZINC000821442454   -1.0000
      7 C7        -13.4616   -5.3349   55.3336 C.3     1  ZINC000821442454    0.1100
      8 C8        -14.5321   -4.8630   56.3227 C.3     1  ZINC000821442454   -0.1300
      9 C9        -13.8573   -4.1515   57.4975 C.3     1  ZINC000821442454   -0.1100
     10 C10       -13.0984   -2.9251   56.9856 C.3     1  ZINC000821442454   -0.1200
     11 H11       -13.7915   -2.2540   56.4783 H       1  ZINC000821442454    0.1100
     12 C12       -12.4617   -2.2064   58.1472 C.2     1  ZINC000821442454    0.5300
     13 O13       -12.2333   -1.0176   58.0733 O.2     1  ZINC000821442454   -0.5100
     14 N14       -12.1461   -2.8848   59.2682 N.am    1  ZINC000821442454   -0.6700
     15 C15       -11.5552   -2.2179   60.3464 C.ar    1  ZINC000821442454    0.1800
     16 C16       -12.2567   -1.2228   61.0152 C.ar    1  ZINC000821442454   -0.1200
     17 C17       -11.6763   -0.5642   62.0790 C.ar    1  ZINC000821442454   -0.0500
     18 C18       -10.3851   -0.8972   62.4832 C.ar    1  ZINC000821442454   -0.0300
     19 C19        -9.7592   -0.1896   63.6279 C.2     1  ZINC000821442454    0.2200
     20 N20        -9.7165    1.1139   63.8198 N.2     1  ZINC000821442454   -0.2900
     21 N21        -9.0885    1.3295   64.9243 N.pl3   1  ZINC000821442454   -0.2200
     22 N22        -8.7322    0.2043   65.4383 N.2     1  ZINC000821442454   -0.0400
     23 N23        -9.1324   -0.7521   64.6710 N.2     1  ZINC000821442454   -0.2700
     24 C24        -9.6821   -1.8958   61.8113 C.ar    1  ZINC000821442454   -0.0500
     25 C25       -10.2681   -2.5559   60.7511 C.ar    1  ZINC000821442454   -0.0800
     26 Cl26       -9.3937   -3.7999   59.9135 Cl      1  ZINC000821442454   -0.0500
     27 C27       -12.0071   -3.3783   56.0040 C.3     1  ZINC000821442454    0.1400
     28 H28       -10.5485   -2.6953   51.4082 H       1  ZINC000821442454    0.0700
     29 H29       -11.9865   -1.6471   51.4467 H       1  ZINC000821442454    0.0700
     30 H30       -10.4070   -1.0105   51.9647 H       1  ZINC000821442454    0.0800
     31 H31       -10.4013   -2.5841   53.8810 H       1  ZINC000821442454    0.1300
     32 H32       -11.8394   -1.5358   53.9194 H       1  ZINC000821442454    0.1300
     33 H33       -13.9408   -5.7539   54.4488 H       1  ZINC000821442454    0.1000
     34 H34       -12.8361   -6.0923   55.8061 H       1  ZINC000821442454    0.0700
     35 H35       -15.2117   -4.1736   55.8216 H       1  ZINC000821442454    0.0700
     36 H36       -15.0916   -5.7230   56.6909 H       1  ZINC000821442454    0.0800
     37 H37       -14.6150   -3.8363   58.2149 H       1  ZINC000821442454    0.0700
     38 H38       -13.1595   -4.8338   57.9830 H       1  ZINC000821442454    0.0800
     39 H39       -12.3288   -3.8357   59.3273 H       1  ZINC000821442454    0.4200
     40 H40       -13.2574   -0.9645   60.7017 H       1  ZINC000821442454    0.1600
     41 H41       -12.2222    0.2095   62.5982 H       1  ZINC000821442454    0.1500
     42 H42        -8.9118    2.2027   65.3081 H       1  ZINC000821442454    0.4800
     43 H43        -8.6812   -2.1553   62.1230 H       1  ZINC000821442454    0.1500
     44 H44       -11.2643   -3.9750   56.5334 H       1  ZINC000821442454    0.0800
     45 H45       -11.5287   -2.5050   55.5607 H       1  ZINC000821442454    0.1000
@<TRIPOS>BOND
     1     1     2    1
     2     1    28    1
     3     1    29    1
     4     1    30    1
     5     2     3    1
     6     2    31    1
     7     2    32    1
     8     3     4    2
     9     3     5    2
    10     3     6   am
    11     6    27    1
    12     6     7    1
    13     7     8    1
    14     7    33    1
    15     7    34    1
    16     8     9    1
    17     8    35    1
    18     8    36    1
    19     9    10    1
    20     9    37    1
    21     9    38    1
    22    10    11    1
    23    10    12    1
    24    10    27    1
    25    12    13    2
    26    12    14   am
    27    14    15    1
    28    14    39    1
    29    15    25   ar
    30    15    16   ar
    31    16    17   ar
    32    16    40    1
    33    17    18   ar
    34    17    41    1
    35    18    19    1
    36    18    24   ar
    37    19    23    1
    38    19    20    2
    39    20    21    1
    40    21    22    1
    41    21    42    1
    42    22    23    2
    43    24    25   ar
    44    24    43    1
    45    25    26    1
    46    27    44    1
    47    27    45    1
@<TRIPOS>SUBSTRUCTURE
     1 ZINC000821442454        1 TEMP              0 ****  ****    0 ROOT


##########                                Name:    ZINC000509132103
##########                DOCK_Rotatable_Bonds:                   7
##########                         Heavy_Atoms:                  29
##########                    Molecular_Weight:              405.52
##########                DOCK_Rotatable_Bonds:                   7
##########                       Formal_Charge:          -0.0499998
##########                     HBond_Acceptors:                   6
##########                        HBond_Donors:                   0
##########                         Heavy_Atoms:                  29
##########                          Grid_Score:          -38.405167
##########                     Grid_vdw_energy:          -37.859837
##########                      Grid_es_energy:           -0.545329
##########           Internal_energy_repulsive:           13.868929

@<TRIPOS>MOLECULE
ZINC000509132103
 52 55 1 0 0
SMALL
USER_CHARGES


@<TRIPOS>ATOM
      1 C1        -16.3105   -1.8712   46.4039 C.3     1  ZINC000509132103    0.0300
      2 O2        -15.5290   -0.8186   46.9724 O.3     1  ZINC000509132103   -0.3000
      3 C3        -14.9958   -1.0413   48.2002 C.ar    1  ZINC000509132103    0.2700
      4 C4        -14.2269   -0.0582   48.8172 C.ar    1  ZINC000509132103   -0.1300
      5 C5        -13.7044   -0.3345   50.0717 C.ar    1  ZINC000509132103   -0.0700
      6 C6        -13.9796   -1.5723   50.6342 C.ar    1  ZINC000509132103    0.0500
      7 C7        -13.4348   -1.9195   51.9957 C.3     1  ZINC000509132103   -0.0500
      8 S8        -11.8721   -2.8218   51.8097 S.3     1  ZINC000509132103   -0.1500
      9 C9        -11.3935   -3.1669   53.5250 C.3     1  ZINC000509132103   -0.1300
     10 C10       -12.4129   -4.0790   54.1571 C.2     1  ZINC000509132103    0.5400
     11 O11       -13.2567   -4.6144   53.4698 O.2     1  ZINC000509132103   -0.5100
     12 N12       -12.3870   -4.3000   55.4865 N.am    1  ZINC000509132103   -0.6100
     13 C13       -13.3650   -5.1822   56.1322 C.3     1  ZINC000509132103    0.1500
     14 C14       -13.8749   -4.5363   57.3960 C.ar    1  ZINC000509132103   -0.1000
     15 C15       -14.9797   -5.1052   58.0138 C.ar    1  ZINC000509132103   -0.1100
     16 C16       -15.4862   -4.5655   59.1786 C.ar    1  ZINC000509132103   -0.1200
     17 C17       -14.8873   -3.4507   59.7344 C.ar    1  ZINC000509132103   -0.1200
     18 C18       -13.7915   -2.8819   59.1190 C.ar    1  ZINC000509132103   -0.1100
     19 C19       -13.2831   -3.4194   57.9431 C.ar    1  ZINC000509132103   -0.0600
     20 C20       -12.1017   -2.7295   57.3134 C.3     1  ZINC000509132103   -0.0200
     21 H21       -12.4480   -1.8513   56.7687 H       1  ZINC000509132103    0.1000
     22 C22       -11.1460   -2.2967   58.3953 C.ar    1  ZINC000509132103   -0.0800
     23 C23       -10.5164   -3.2439   59.1809 C.ar    1  ZINC000509132103   -0.1100
     24 C24        -9.6398   -2.8469   60.1732 C.ar    1  ZINC000509132103   -0.1200
     25 C25        -9.3926   -1.5026   60.3799 C.ar    1  ZINC000509132103   -0.1200
     26 C26       -10.0216   -0.5555   59.5937 C.ar    1  ZINC000509132103   -0.1200
     27 C27       -10.8949   -0.9526   58.5984 C.ar    1  ZINC000509132103   -0.1100
     28 C28       -11.3722   -3.6705   56.3475 C.3     1  ZINC000509132103    0.1200
     29 N29       -14.7184   -2.4447   49.9774 N.ar    1  ZINC000509132103   -0.1900
     30 N30       -15.2090   -2.1920   48.8186 N.ar    1  ZINC000509132103   -0.3000
     31 H31       -17.1568   -2.0881   47.0557 H       1  ZINC000509132103    0.0600
     32 H32       -16.6761   -1.5639   45.4241 H       1  ZINC000509132103    0.1000
     33 H33       -15.6949   -2.7645   46.2983 H       1  ZINC000509132103    0.0600
     34 H34       -14.0428    0.8899   48.3338 H       1  ZINC000509132103    0.1600
     35 H35       -13.1008    0.3922   50.5951 H       1  ZINC000509132103    0.1600
     36 H36       -13.2607   -1.0043   52.5617 H       1  ZINC000509132103    0.1100
     37 H37       -14.1538   -2.5437   52.5264 H       1  ZINC000509132103    0.1000
     38 H38       -10.4160   -3.6490   53.5394 H       1  ZINC000509132103    0.1100
     39 H39       -11.3459   -2.2323   54.0840 H       1  ZINC000509132103    0.1100
     40 H40       -14.1991   -5.3580   55.4528 H       1  ZINC000509132103    0.1000
     41 H41       -12.8906   -6.1326   56.3764 H       1  ZINC000509132103    0.0900
     42 H42       -15.4468   -5.9768   57.5796 H       1  ZINC000509132103    0.1200
     43 H43       -16.3468   -5.0125   59.6540 H       1  ZINC000509132103    0.1300
     44 H44       -15.2765   -3.0257   60.6477 H       1  ZINC000509132103    0.1200
     45 H45       -13.3249   -2.0109   59.5549 H       1  ZINC000509132103    0.1200
     46 H46       -10.7095   -4.2943   59.0195 H       1  ZINC000509132103    0.1200
     47 H47        -9.1484   -3.5869   60.7875 H       1  ZINC000509132103    0.1200
     48 H48        -8.7083   -1.1923   61.1556 H       1  ZINC000509132103    0.1200
     49 H49        -9.8287    0.4949   59.7553 H       1  ZINC000509132103    0.1200
     50 H50       -11.3863   -0.2126   57.9842 H       1  ZINC000509132103    0.1200
     51 H51       -10.8349   -4.4333   56.9111 H       1  ZINC000509132103    0.0800
     52 H52       -10.6721   -3.1012   55.7362 H       1  ZINC000509132103    0.1000
@<TRIPOS>BOND
     1     1     2    1
     2     1    31    1
     3     1    32    1
     4     1    33    1
     5     2     3    1
     6     3    30   ar
     7     3     4   ar
     8     4     5   ar
     9     4    34    1
    10     5     6   ar
    11     5    35    1
    12     6     7    1
    13     6    29   ar
    14     7     8    1
    15     7    36    1
    16     7    37    1
    17     8     9    1
    18     9    10    1
    19     9    38    1
    20     9    39    1
    21    10    11    2
    22    10    12   am
    23    12    28    1
    24    12    13    1
    25    13    14    1
    26    13    40    1
    27    13    41    1
    28    14    19   ar
    29    14    15   ar
    30    15    16   ar
    31    15    42    1
    32    16    17   ar
    33    16    43    1
    34    17    18   ar
    35    17    44    1
    36    18    19   ar
    37    18    45    1
    38    19    20    1
    39    20    21    1
    40    20    22    1
    41    20    28    1
    42    22    27   ar
    43    22    23   ar
    44    23    24   ar
    45    23    46    1
    46    24    25   ar
    47    24    47    1
    48    25    26   ar
    49    25    48    1
    50    26    27   ar
    51    26    49    1
    52    27    50    1
    53    28    51    1
    54    28    52    1
    55    29    30   ar
@<TRIPOS>SUBSTRUCTURE
     1 ZINC000509132103        1 TEMP              0 ****  ****    0 ROOT


##########                                Name:    ZINC000050607728
##########                DOCK_Rotatable_Bonds:                  10
##########                         Heavy_Atoms:                  31
##########                    Molecular_Weight:             416.476
##########                DOCK_Rotatable_Bonds:                  10
##########                       Formal_Charge:          -0.0199995
##########                     HBond_Acceptors:                   6
##########                        HBond_Donors:                   1
##########                         Heavy_Atoms:                  31
##########                          Grid_Score:          -38.402027
##########                     Grid_vdw_energy:          -37.816650
##########                      Grid_es_energy:           -0.585376
##########           Internal_energy_repulsive:           35.147041

@<TRIPOS>MOLECULE
ZINC000050607728
 55 57 1 0 0
SMALL
USER_CHARGES


@<TRIPOS>ATOM
      1 C1        -12.2489   -1.1283   60.7945 C.3     1  ZINC000050607728    0.0800
      2 N2        -11.2864   -0.1967   60.2012 N.am    1  ZINC000050607728   -0.6200
      3 C3        -11.2549    1.2011   60.6389 C.3     1  ZINC000050607728    0.0700
      4 C4        -10.4301   -0.6254   59.2529 C.2     1  ZINC000050607728    0.5600
      5 O5         -9.6317    0.1476   58.7607 O.2     1  ZINC000050607728   -0.5300
      6 C6        -10.4620   -2.0359   58.8112 C.ar    1  ZINC000050607728   -0.1400
      7 C7         -9.5831   -2.9652   59.3695 C.ar    1  ZINC000050607728   -0.0800
      8 C8         -9.6184   -4.2802   58.9533 C.ar    1  ZINC000050607728   -0.1300
      9 C9        -10.5219   -4.6781   57.9843 C.ar    1  ZINC000050607728   -0.0700
     10 C10       -11.3958   -3.7617   57.4262 C.ar    1  ZINC000050607728   -0.1100
     11 C11       -12.3764   -4.2040   56.3708 C.3     1  ZINC000050607728    0.1100
     12 O12       -11.8152   -3.9569   55.0547 O.3     1  ZINC000050607728   -0.3400
     13 C13       -12.6828   -3.7697   54.0477 C.2     1  ZINC000050607728    0.4700
     14 O14       -13.0523   -4.7106   53.3858 O.2     1  ZINC000050607728   -0.5000
     15 C15       -13.1958   -2.3860   53.7425 C.3     1  ZINC000050607728    0.2000
     16 H16       -13.7454   -2.0042   54.6029 H       1  ZINC000050607728    0.1400
     17 N17       -12.0662   -1.4994   53.4522 N.am    1  ZINC000050607728   -0.7100
     18 C18       -10.9855   -1.9755   52.8027 C.2     1  ZINC000050607728    0.5700
     19 O19       -10.9486   -3.1401   52.4565 O.2     1  ZINC000050607728   -0.5200
     20 C20        -9.8448   -1.0812   52.5112 C.ar    1  ZINC000050607728   -0.1400
     21 C21        -8.7258   -1.5700   51.8350 C.ar    1  ZINC000050607728   -0.0800
     22 C22        -7.6651   -0.7301   51.5658 C.ar    1  ZINC000050607728   -0.1300
     23 C23        -7.7085    0.5940   51.9647 C.ar    1  ZINC000050607728   -0.0900
     24 C24        -8.8145    1.0847   52.6357 C.ar    1  ZINC000050607728   -0.1300
     25 C25        -9.8846    0.2570   52.9058 C.ar    1  ZINC000050607728   -0.0600
     26 C26       -14.1108   -2.4419   52.5465 C.ar    1  ZINC000050607728   -0.1000
     27 C27       -15.4679   -2.6366   52.7229 C.ar    1  ZINC000050607728   -0.1000
     28 C28       -16.3073   -2.6878   51.6258 C.ar    1  ZINC000050607728   -0.1200
     29 C29       -15.7896   -2.5441   50.3522 C.ar    1  ZINC000050607728   -0.1100
     30 C30       -14.4325   -2.3485   50.1757 C.ar    1  ZINC000050607728   -0.1200
     31 C31       -13.5937   -2.2929   51.2731 C.ar    1  ZINC000050607728   -0.0800
     32 C32       -11.3751   -2.4454   57.8380 C.ar    1  ZINC000050607728   -0.0400
     33 H33       -13.1715   -1.1162   60.2140 H       1  ZINC000050607728    0.0600
     34 H34       -11.8303   -2.1348   60.7903 H       1  ZINC000050607728    0.0800
     35 H35       -12.4611   -0.8274   61.8203 H       1  ZINC000050607728    0.0700
     36 H36       -10.6296    1.2896   61.5273 H       1  ZINC000050607728    0.0600
     37 H37       -10.8446    1.8220   59.8425 H       1  ZINC000050607728    0.0800
     38 H38       -12.2670    1.5316   60.8725 H       1  ZINC000050607728    0.0700
     39 H39        -8.8768   -2.6556   60.1257 H       1  ZINC000050607728    0.1400
     40 H40        -8.9388   -5.0003   59.3845 H       1  ZINC000050607728    0.1400
     41 H41       -10.5452   -5.7085   57.6616 H       1  ZINC000050607728    0.1300
     42 H42       -12.5781   -5.2689   56.4858 H       1  ZINC000050607728    0.0900
     43 H43       -13.3053   -3.6443   56.4807 H       1  ZINC000050607728    0.0900
     44 H44       -12.0961   -0.5697   53.7274 H       1  ZINC000050607728    0.4100
     45 H45        -8.6904   -2.6036   51.5237 H       1  ZINC000050607728    0.1300
     46 H46        -6.7987   -1.1070   51.0427 H       1  ZINC000050607728    0.1300
     47 H47        -6.8753    1.2473   51.7517 H       1  ZINC000050607728    0.1300
     48 H48        -8.8421    2.1192   52.9447 H       1  ZINC000050607728    0.1300
     49 H49       -10.7475    0.6414   53.4294 H       1  ZINC000050607728    0.1400
     50 H50       -15.8724   -2.7488   53.7180 H       1  ZINC000050607728    0.1200
     51 H51       -17.3675   -2.8406   51.7637 H       1  ZINC000050607728    0.1200
     52 H52       -16.4452   -2.5848   49.4950 H       1  ZINC000050607728    0.1200
     53 H53       -14.0280   -2.2365   49.1806 H       1  ZINC000050607728    0.1300
     54 H54       -12.5336   -2.1402   51.1352 H       1  ZINC000050607728    0.1300
     55 H55       -12.0579   -1.7311   57.4019 H       1  ZINC000050607728    0.1300
@<TRIPOS>BOND
     1     1     2    1
     2     1    33    1
     3     1    34    1
     4     1    35    1
     5     2     3    1
     6     2     4   am
     7     3    36    1
     8     3    37    1
     9     3    38    1
    10     4     5    2
    11     4     6    1
    12     6    32   ar
    13     6     7   ar
    14     7     8   ar
    15     7    39    1
    16     8     9   ar
    17     8    40    1
    18     9    10   ar
    19     9    41    1
    20    10    11    1
    21    10    32   ar
    22    11    12    1
    23    11    42    1
    24    11    43    1
    25    12    13    1
    26    13    14    2
    27    13    15    1
    28    15    16    1
    29    15    17    1
    30    15    26    1
    31    17    18   am
    32    17    44    1
    33    18    19    2
    34    18    20    1
    35    20    25   ar
    36    20    21   ar
    37    21    22   ar
    38    21    45    1
    39    22    23   ar
    40    22    46    1
    41    23    24   ar
    42    23    47    1
    43    24    25   ar
    44    24    48    1
    45    25    49    1
    46    26    31   ar
    47    26    27   ar
    48    27    28   ar
    49    27    50    1
    50    28    29   ar
    51    28    51    1
    52    29    30   ar
    53    29    52    1
    54    30    31   ar
    55    30    53    1
    56    31    54    1
    57    32    55    1
@<TRIPOS>SUBSTRUCTURE
     1 ZINC000050607728        1 TEMP              0 ****  ****    0 ROOT


##########                                Name:    ZINC001369071670
##########                DOCK_Rotatable_Bonds:                   8
##########                         Heavy_Atoms:                  24
##########                    Molecular_Weight:             335.366
##########                DOCK_Rotatable_Bonds:                   8
##########                       Formal_Charge:        -2.90573e-07
##########                     HBond_Acceptors:                  10
##########                        HBond_Donors:                   1
##########                         Heavy_Atoms:                  24
##########                          Grid_Score:          -38.400692
##########                     Grid_vdw_energy:          -38.706272
##########                      Grid_es_energy:            0.305580
##########           Internal_energy_repulsive:            6.561626

@<TRIPOS>MOLECULE
ZINC001369071670
 45 47 1 0 0
SMALL
USER_CHARGES


@<TRIPOS>ATOM
      1 C1         -5.7337    1.0359   50.6758 C.3     1  ZINC001369071670   -0.0800
      2 C2         -6.8782    0.1259   51.0407 C.2     1  ZINC001369071670    0.0000
      3 C3         -7.9301    0.4287   51.8355 C.2     1  ZINC001369071670   -0.2300
      4 C4         -8.7026   -0.7619   51.8493 C.2     1  ZINC001369071670    0.2100
      5 O5         -9.8691   -0.9682   52.5115 O.3     1  ZINC001369071670   -0.2600
      6 C6        -10.4640   -2.2618   52.3899 C.3     1  ZINC001369071670    0.0400
      7 C7        -11.6946   -2.3322   53.2570 C.2     1  ZINC001369071670    0.5200
      8 O8        -12.3875   -1.3482   53.4076 O.2     1  ZINC001369071670   -0.5100
      9 N9        -12.0253   -3.4887   53.8649 N.am    1  ZINC001369071670   -0.7200
     10 C10       -13.2225   -3.5576   54.7064 C.3     1  ZINC001369071670    0.1500
     11 H11       -13.5455   -2.5485   54.9622 H       1  ZINC001369071670    0.0900
     12 C12       -14.3404   -4.2733   53.9454 C.3     1  ZINC001369071670   -0.1700
     13 C13       -12.9019   -4.3305   55.9874 C.3     1  ZINC001369071670   -0.1200
     14 C14       -11.6512   -3.8176   56.7238 C.3     1  ZINC001369071670    0.0100
     15 N15       -12.4331   -3.9926   57.9677 N.3     1  ZINC001369071670   -0.4800
     16 C16       -12.2348   -2.8572   58.8784 C.3     1  ZINC001369071670    0.1000
     17 C17       -10.9695   -3.0635   59.6705 C.2     1  ZINC001369071670    0.1900
     18 N18       -10.0665   -3.9931   59.4746 N.2     1  ZINC001369071670   -0.3000
     19 N19        -9.1379   -3.8375   60.3540 N.2     1  ZINC001369071670   -0.0700
     20 N20        -9.4251   -2.8328   61.1058 N.2     1  ZINC001369071670   -0.0900
     21 N21       -10.5445   -2.3256   60.7127 N.pl3   1  ZINC001369071670   -0.3000
     22 C22       -11.2290   -1.1696   61.2970 C.3     1  ZINC001369071670    0.0800
     23 C23       -13.6992   -3.8537   57.2148 C.3     1  ZINC001369071670    0.0200
     24 N24        -8.0663   -1.6190   51.0967 N.2     1  ZINC001369071670   -0.4100
     25 O25        -7.0559   -1.1400   50.6365 O.3     1  ZINC001369071670    0.1000
     26 H26        -5.0454    0.5074   50.0162 H       1  ZINC001369071670    0.0900
     27 H27        -6.1196    1.9187   50.1661 H       1  ZINC001369071670    0.1000
     28 H28        -5.2081    1.3396   51.5812 H       1  ZINC001369071670    0.1000
     29 H29        -8.1347    1.3603   52.3420 H       1  ZINC001369071670    0.1800
     30 H30       -10.7414   -2.4379   51.3505 H       1  ZINC001369071670    0.1000
     31 H31        -9.7506   -3.0214   52.7094 H       1  ZINC001369071670    0.1000
     32 H32       -11.4705   -4.2754   53.7454 H       1  ZINC001369071670    0.4000
     33 H33       -14.5688   -3.7227   53.0328 H       1  ZINC001369071670    0.0600
     34 H34       -14.0174   -5.2824   53.6895 H       1  ZINC001369071670    0.0600
     35 H35       -15.2311   -4.3246   54.5714 H       1  ZINC001369071670    0.0700
     36 H36       -12.9177   -5.4112   55.8467 H       1  ZINC001369071670    0.1100
     37 H37       -10.7923   -4.4843   56.6475 H       1  ZINC001369071670    0.1000
     38 H38       -11.4059   -2.7789   56.5018 H       1  ZINC001369071670    0.0800
     39 H39       -12.1552   -1.9370   58.2996 H       1  ZINC001369071670    0.1000
     40 H40       -13.0825   -2.7856   59.5598 H       1  ZINC001369071670    0.0900
     41 H41       -10.8910   -0.2589   60.8024 H       1  ZINC001369071670    0.1000
     42 H42       -12.3051   -1.2782   61.1623 H       1  ZINC001369071670    0.1000
     43 H43       -10.9999   -1.1114   62.3611 H       1  ZINC001369071670    0.1100
     44 H44       -14.0529   -2.8257   57.1363 H       1  ZINC001369071670    0.0800
     45 H45       -14.4767   -4.5493   57.5306 H       1  ZINC001369071670    0.1000
@<TRIPOS>BOND
     1     1     2    1
     2     1    26    1
     3     1    27    1
     4     1    28    1
     5     2    25    1
     6     2     3    2
     7     3     4    1
     8     3    29    1
     9     4     5    1
    10     4    24    2
    11     5     6    1
    12     6     7    1
    13     6    30    1
    14     6    31    1
    15     7     8    2
    16     7     9   am
    17     9    10    1
    18     9    32    1
    19    10    11    1
    20    10    12    1
    21    10    13    1
    22    12    33    1
    23    12    34    1
    24    12    35    1
    25    13    23    1
    26    13    14    1
    27    13    36    1
    28    14    15    1
    29    14    37    1
    30    14    38    1
    31    15    16    1
    32    15    23    1
    33    16    17    1
    34    16    39    1
    35    16    40    1
    36    17    21    1
    37    17    18    2
    38    18    19    1
    39    19    20    2
    40    20    21    1
    41    21    22    1
    42    22    41    1
    43    22    42    1
    44    22    43    1
    45    23    44    1
    46    23    45    1
    47    24    25    1
@<TRIPOS>SUBSTRUCTURE
     1 ZINC001369071670        1 TEMP              0 ****  ****    0 ROOT


##########                                Name:    ZINC000523863446
##########                DOCK_Rotatable_Bonds:                  10
##########                         Heavy_Atoms:                  29
##########                    Molecular_Weight:             396.533
##########                DOCK_Rotatable_Bonds:                  10
##########                       Formal_Charge:          -0.0200008
##########                     HBond_Acceptors:                   6
##########                        HBond_Donors:                   1
##########                         Heavy_Atoms:                  29
##########                          Grid_Score:          -38.399250
##########                     Grid_vdw_energy:          -38.365639
##########                      Grid_es_energy:           -0.033611
##########           Internal_energy_repulsive:           25.745897

@<TRIPOS>MOLECULE
ZINC000523863446
 61 63 1 0 0
SMALL
USER_CHARGES


@<TRIPOS>ATOM
      1 C1         -9.7084    0.9885   53.7446 C.3     1  ZINC000523863446   -0.1700
      2 C2         -9.8017   -0.3083   52.9379 C.3     1  ZINC000523863446    0.1500
      3 H3         -9.7742   -1.1610   53.6163 H       1  ZINC000523863446    0.1300
      4 C4        -11.0933   -0.3253   52.1618 C.2     1  ZINC000523863446    0.5100
      5 O5        -11.5786    0.7146   51.7693 O.2     1  ZINC000523863446   -0.5100
      6 N6        -11.7092   -1.4960   51.9040 N.am    1  ZINC000523863446   -0.6000
      7 C7        -12.9639   -1.5127   51.1480 C.3     1  ZINC000523863446    0.0700
      8 C8        -11.1238   -2.7520   52.3799 C.3     1  ZINC000523863446    0.1000
      9 C9        -11.7848   -3.1563   53.6724 C.2     1  ZINC000523863446    0.5000
     10 O10       -12.5760   -4.0754   53.6873 O.2     1  ZINC000523863446   -0.5200
     11 N11       -11.4969   -2.4964   54.8116 N.am    1  ZINC000523863446   -0.7200
     12 C12       -12.1382   -2.8906   56.0685 C.3     1  ZINC000523863446    0.1900
     13 H13       -12.4225   -3.9416   56.0174 H       1  ZINC000523863446    0.1000
     14 C14       -13.3865   -2.0351   56.2944 C.3     1  ZINC000523863446   -0.1200
     15 C15       -14.1212   -2.5248   57.5438 C.3     1  ZINC000523863446   -0.0900
     16 C16       -15.2374   -1.5400   57.8978 C.3     1  ZINC000523863446   -0.1200
     17 C17       -15.9722   -2.0297   59.1473 C.3     1  ZINC000523863446   -0.1200
     18 C18       -16.5761   -3.4090   58.8761 C.3     1  ZINC000523863446   -0.1200
     19 C19       -15.4600   -4.3938   58.5220 C.3     1  ZINC000523863446   -0.1200
     20 C20       -14.7252   -3.9042   57.2726 C.3     1  ZINC000523863446   -0.1100
     21 C21       -11.1755   -2.6854   57.2096 C.ar    1  ZINC000523863446   -0.0900
     22 C22       -10.7605   -3.7651   57.9665 C.ar    1  ZINC000523863446   -0.1100
     23 C23        -9.8773   -3.5769   59.0131 C.ar    1  ZINC000523863446   -0.1200
     24 C24        -9.4089   -2.3089   59.3026 C.ar    1  ZINC000523863446   -0.1200
     25 C25        -9.8231   -1.2293   58.5452 C.ar    1  ZINC000523863446   -0.1200
     26 C26       -10.7029   -1.4182   57.4959 C.ar    1  ZINC000523863446   -0.1000
     27 N27        -8.6722   -0.3874   52.0082 N.pl3   1  ZINC000523863446   -0.3600
     28 C28        -8.1026    0.6508   51.3608 C.2     1  ZINC000523863446    0.0600
     29 C29        -7.0955    0.1606   50.6014 C.2     1  ZINC000523863446   -0.2700
     30 C30        -7.0481   -1.2243   50.7911 C.2     1  ZINC000523863446    0.0500
     31 N31        -7.9888   -1.5531   51.6390 N.2     1  ZINC000523863446   -0.2900
     32 H32        -9.7358    1.8412   53.0662 H       1  ZINC000523863446    0.0700
     33 H33       -10.5487    1.0473   54.4363 H       1  ZINC000523863446    0.1000
     34 H34        -8.7742    1.0008   54.3060 H       1  ZINC000523863446    0.0800
     35 H35       -12.7458   -1.6023   50.0838 H       1  ZINC000523863446    0.0700
     36 H36       -13.5693   -2.3611   51.4675 H       1  ZINC000523863446    0.0800
     37 H37       -13.5103   -0.5874   51.3303 H       1  ZINC000523863446    0.0800
     38 H38       -11.2789   -3.5309   51.6332 H       1  ZINC000523863446    0.1100
     39 H39       -10.0552   -2.6149   52.5455 H       1  ZINC000523863446    0.1100
     40 H40       -10.8652   -1.7604   54.7995 H       1  ZINC000523863446    0.4000
     41 H41       -13.0938   -0.9938   56.4296 H       1  ZINC000523863446    0.0800
     42 H42       -14.0451   -2.1180   55.4298 H       1  ZINC000523863446    0.0700
     43 H43       -13.4194   -2.5925   58.3750 H       1  ZINC000523863446    0.0700
     44 H44       -14.8072   -0.5574   58.0910 H       1  ZINC000523863446    0.0600
     45 H45       -15.9393   -1.4723   57.0666 H       1  ZINC000523863446    0.0600
     46 H46       -15.2703   -2.0974   59.9785 H       1  ZINC000523863446    0.0600
     47 H47       -16.7674   -1.3281   59.3995 H       1  ZINC000523863446    0.0600
     48 H48       -17.0996   -3.7578   59.7662 H       1  ZINC000523863446    0.0600
     49 H49       -17.2781   -3.3413   58.0449 H       1  ZINC000523863446    0.0600
     50 H50       -14.7580   -4.4615   59.3532 H       1  ZINC000523863446    0.0600
     51 H51       -15.8903   -5.3765   58.3288 H       1  ZINC000523863446    0.0600
     52 H52       -15.4271   -3.8364   56.4415 H       1  ZINC000523863446    0.0600
     53 H53       -13.9301   -4.6057   57.0204 H       1  ZINC000523863446    0.0600
     54 H54       -11.1264   -4.7557   57.7402 H       1  ZINC000523863446    0.1200
     55 H55        -9.5537   -4.4204   59.6049 H       1  ZINC000523863446    0.1200
     56 H56        -8.7195   -2.1618   60.1209 H       1  ZINC000523863446    0.1200
     57 H57        -9.4574   -0.2388   58.7717 H       1  ZINC000523863446    0.1200
     58 H58       -11.0267   -0.5747   56.9041 H       1  ZINC000523863446    0.1200
     59 H59        -8.3978    1.6869   51.4352 H       1  ZINC000523863446    0.1700
     60 H60        -6.4440    0.7370   49.9613 H       1  ZINC000523863446    0.1500
     61 H61        -6.3518   -1.9041   50.3227 H       1  ZINC000523863446    0.1800
@<TRIPOS>BOND
     1     1     2    1
     2     1    32    1
     3     1    33    1
     4     1    34    1
     5     2     3    1
     6     2     4    1
     7     2    27    1
     8     4     5    2
     9     4     6   am
    10     6     7    1
    11     6     8    1
    12     7    35    1
    13     7    36    1
    14     7    37    1
    15     8     9    1
    16     8    38    1
    17     8    39    1
    18     9    10    2
    19     9    11   am
    20    11    12    1
    21    11    40    1
    22    12    13    1
    23    12    14    1
    24    12    21    1
    25    14    15    1
    26    14    41    1
    27    14    42    1
    28    15    20    1
    29    15    16    1
    30    15    43    1
    31    16    17    1
    32    16    44    1
    33    16    45    1
    34    17    18    1
    35    17    46    1
    36    17    47    1
    37    18    19    1
    38    18    48    1
    39    18    49    1
    40    19    20    1
    41    19    50    1
    42    19    51    1
    43    20    52    1
    44    20    53    1
    45    21    26   ar
    46    21    22   ar
    47    22    23   ar
    48    22    54    1
    49    23    24   ar
    50    23    55    1
    51    24    25   ar
    52    24    56    1
    53    25    26   ar
    54    25    57    1
    55    26    58    1
    56    27    31    1
    57    27    28    1
    58    28    29    2
    59    28    59    1
    60    29    30    1
    61    29    60    1
    62    30    31    2
    63    30    61    1
@<TRIPOS>SUBSTRUCTURE
     1 ZINC000523863446        1 TEMP              0 ****  ****    0 ROOT


##########                                Name:    ZINC000150894060
##########                DOCK_Rotatable_Bonds:                  10
##########                         Heavy_Atoms:                  27
##########                    Molecular_Weight:              366.42
##########                DOCK_Rotatable_Bonds:                  10
##########                       Formal_Charge:        -6.70552e-07
##########                     HBond_Acceptors:                   7
##########                        HBond_Donors:                   2
##########                         Heavy_Atoms:                  27
##########                          Grid_Score:          -38.320770
##########                     Grid_vdw_energy:          -36.860950
##########                      Grid_es_energy:           -1.459822
##########           Internal_energy_repulsive:           12.348454

@<TRIPOS>MOLECULE
ZINC000150894060
 49 51 1 0 0
SMALL
USER_CHARGES


@<TRIPOS>ATOM
      1 C1         -7.6100   -0.1160   51.6641 C.3     1  ZINC000150894060   -0.1000
      2 C2         -8.6902    0.5525   52.4749 C.2     1  ZINC000150894060   -0.0800
      3 C3         -9.9572    0.0886   52.6842 C.2     1  ZINC000150894060   -0.1000
      4 C4        -10.5162   -1.1600   52.1555 C.2     1  ZINC000150894060    0.6100
      5 O5         -9.7849   -1.9815   51.6348 O.2     1  ZINC000150894060   -0.5100
      6 N6        -11.8397   -1.3975   52.2463 N.am    1  ZINC000150894060   -0.7200
      7 C7        -12.3978   -2.6454   51.7197 C.3     1  ZINC000150894060    0.1200
      8 C8        -13.5193   -3.1310   52.6401 C.3     1  ZINC000150894060   -0.1500
      9 C9        -13.0167   -4.3070   53.4799 C.3     1  ZINC000150894060    0.1200
     10 N10       -12.2455   -3.8001   54.6178 N.am    1  ZINC000150894060   -0.7300
     11 C11       -12.3336   -4.4096   55.8166 C.2     1  ZINC000150894060    0.5600
     12 O12       -13.0517   -5.3808   55.9534 O.2     1  ZINC000150894060   -0.5300
     13 C13       -11.5568   -3.8970   56.9653 C.ar    1  ZINC000150894060   -0.1300
     14 C14       -11.2476   -2.5387   57.0523 C.ar    1  ZINC000150894060   -0.0900
     15 C15       -10.5229   -2.0668   58.1272 C.ar    1  ZINC000150894060   -0.0900
     16 C16       -10.1023   -2.9368   59.1174 C.ar    1  ZINC000150894060   -0.0800
     17 C17        -9.3105   -2.4144   60.2883 C.3     1  ZINC000150894060    0.1700
     18 N18       -10.2071   -1.7120   61.2096 N.pl3   1  ZINC000150894060   -0.3700
     19 C19        -9.8319   -0.9830   62.2815 C.2     1  ZINC000150894060    0.0500
     20 C20       -10.9534   -0.5025   62.8667 C.2     1  ZINC000150894060   -0.2700
     21 C21       -12.0516   -0.9533   62.1270 C.2     1  ZINC000150894060    0.0400
     22 N22       -11.6052   -1.6733   61.1299 N.2     1  ZINC000150894060   -0.2900
     23 C23       -10.4058   -4.2844   59.0374 C.ar    1  ZINC000150894060   -0.1100
     24 C24       -11.1344   -4.7684   57.9706 C.ar    1  ZINC000150894060   -0.0600
     25 O25       -10.6048    0.9800   53.4628 O.3     1  ZINC000150894060   -0.1700
     26 C26        -9.7827    1.9967   53.7528 C.2     1  ZINC000150894060    0.0000
     27 C27        -8.5868    1.7698   53.1661 C.2     1  ZINC000150894060   -0.2300
     28 H28        -7.0316   -0.7797   52.3068 H       1  ZINC000150894060    0.0800
     29 H29        -8.0647   -0.6945   50.8599 H       1  ZINC000150894060    0.0900
     30 H30        -6.9525    0.6425   51.2393 H       1  ZINC000150894060    0.0700
     31 H31       -12.4228   -0.7421   52.6603 H       1  ZINC000150894060    0.4100
     32 H32       -12.7973   -2.4717   50.7205 H       1  ZINC000150894060    0.0800
     33 H33       -11.6145   -3.4018   51.6712 H       1  ZINC000150894060    0.0800
     34 H34       -13.8259   -2.3187   53.2991 H       1  ZINC000150894060    0.0800
     35 H35       -14.3700   -3.4514   52.0386 H       1  ZINC000150894060    0.0800
     36 H36       -13.8672   -4.8826   53.8449 H       1  ZINC000150894060    0.0800
     37 H37       -12.3816   -4.9462   52.8666 H       1  ZINC000150894060    0.0800
     38 H38       -11.6716   -3.0259   54.5084 H       1  ZINC000150894060    0.4000
     39 H39       -11.5747   -1.8587   56.2797 H       1  ZINC000150894060    0.1300
     40 H40       -10.2829   -1.0160   58.1956 H       1  ZINC000150894060    0.1300
     41 H41        -8.8364   -3.2476   60.8072 H       1  ZINC000150894060    0.1100
     42 H42        -8.5447   -1.7260   59.9309 H       1  ZINC000150894060    0.1000
     43 H43        -8.8180   -0.8138   62.6131 H       1  ZINC000150894060    0.1700
     44 H44       -10.9934    0.1187   63.7492 H       1  ZINC000150894060    0.1500
     45 H45       -13.0888   -0.7395   62.3393 H       1  ZINC000150894060    0.1800
     46 H46       -10.0748   -4.9582   59.8138 H       1  ZINC000150894060    0.1300
     47 H47       -11.3709   -5.8204   57.9096 H       1  ZINC000150894060    0.1400
     48 H48       -10.0331    2.8547   54.3593 H       1  ZINC000150894060    0.2100
     49 H49        -7.7171    2.4082   53.2144 H       1  ZINC000150894060    0.1600
@<TRIPOS>BOND
     1     1     2    1
     2     1    28    1
     3     1    29    1
     4     1    30    1
     5     2    27    1
     6     2     3    2
     7     3     4    1
     8     3    25    1
     9     4     5    2
    10     4     6   am
    11     6     7    1
    12     6    31    1
    13     7     8    1
    14     7    32    1
    15     7    33    1
    16     8     9    1
    17     8    34    1
    18     8    35    1
    19     9    10    1
    20     9    36    1
    21     9    37    1
    22    10    11   am
    23    10    38    1
    24    11    12    2
    25    11    13    1
    26    13    24   ar
    27    13    14   ar
    28    14    15   ar
    29    14    39    1
    30    15    16   ar
    31    15    40    1
    32    16    17    1
    33    16    23   ar
    34    17    18    1
    35    17    41    1
    36    17    42    1
    37    18    22    1
    38    18    19    1
    39    19    20    2
    40    19    43    1
    41    20    21    1
    42    20    44    1
    43    21    22    2
    44    21    45    1
    45    23    24   ar
    46    23    46    1
    47    24    47    1
    48    25    26    1
    49    26    27    2
    50    26    48    1
    51    27    49    1
@<TRIPOS>SUBSTRUCTURE
     1 ZINC000150894060        1 TEMP              0 ****  ****    0 ROOT


##########                                Name:     oleObject70.pdb
##########                DOCK_Rotatable_Bonds:                   9
##########                         Heavy_Atoms:                  35
##########                    Molecular_Weight:             504.458
##########                DOCK_Rotatable_Bonds:                   9
##########                       Formal_Charge:          0.00010002
##########                     HBond_Acceptors:                   6
##########                        HBond_Donors:                   2
##########                         Heavy_Atoms:                  35
##########                          Grid_Score:          -38.278427
##########                     Grid_vdw_energy:          -38.500561
##########                      Grid_es_energy:            0.222134
##########           Internal_energy_repulsive:           23.808641

@<TRIPOS>MOLECULE
oleObject70.pdb
 62 65 1 0 0
SMALL
NO_CHARGES


@<TRIPOS>ATOM
      1 C          -1.7232    4.0699   45.2124 C.ar    1  UNL        -0.0620
      2 C          -1.8169    2.6775   45.0756 C.ar    1  UNL        -0.0590
      3 C          -1.7634    1.8378   46.2051 C.ar    1  UNL        -0.0456
      4 C          -1.6235    2.4056   47.4973 C.ar    1  UNL        -0.0187
      5 C          -1.5155    3.8084   47.6163 C.ar    1  UNL        -0.0565
      6 C          -1.5676    4.6352   46.4844 C.ar    1  UNL        -0.0619
      7 C          -1.5616    1.5199   48.7545 C.3     1  UNL         0.0909
      8 C          -0.3133    1.7540   49.6230 C.ar    1  UNL         0.0681
      9 C           0.9975    1.6145   49.1000 C.ar    1  UNL        -0.0272
     10 C           2.0890    1.8412   49.9596 C.ar    1  UNL        -0.0559
     11 C           1.8465    2.1992   51.2935 C.ar    1  UNL        -0.0435
     12 C           0.5177    2.3220   51.7250 C.ar    1  UNL         0.0272
     13 N          -0.5324    2.1077   50.9110 N.ar    1  UNL        -0.2587
     14 C           1.2599    1.2242   47.6496 C.3     1  UNL        -0.0379
     15 N          -2.8389    1.4928   49.5009 N.am    1  UNL        -0.2987
     16 C          -3.3563    2.5070   50.2972 C.2     1  UNL         0.2437
     17 O          -2.7861    3.5723   50.4588 O.2     1  UNL        -0.2719
     18 C          -4.6872    2.2268   50.9534 C.ar    1  UNL         0.0371
     19 C          -5.3173    3.1623   51.8048 C.ar    1  UNL        -0.0494
     20 C          -6.5566    2.8693   52.3976 C.ar    1  UNL        -0.0570
     21 C          -7.1899    1.6395   52.1533 C.ar    1  UNL        -0.0341
     22 C          -6.5717    0.7047   51.3065 C.ar    1  UNL        -0.0570
     23 C          -5.3323    0.9957   50.7138 C.ar    1  UNL        -0.0494
     24 C          -8.5338    1.3289   52.7905 C.3     1  UNL         0.0208
     25 N          -9.3975    0.5727   51.8750 N.4     1  UNL        -0.3086
     26 C         -10.7804    0.4277   52.3486 C.3     1  UNL         0.0223
     27 C         -10.8503   -0.4069   53.6204 C.ar    1  UNL        -0.0154
     28 C         -10.6112    0.2093   54.8637 C.ar    1  UNL        -0.0548
     29 C         -10.6738   -0.5359   56.0525 C.ar    1  UNL        -0.0431
     30 C         -10.9784   -1.9051   56.0055 C.ar    1  UNL         0.0421
     31 C         -11.2217   -2.5287   54.7718 C.ar    1  UNL        -0.0245
     32 C         -11.1593   -1.7843   53.5815 C.ar    1  UNL         0.0465
     33 CL        -11.4801   -2.6067   52.0654 Cl      1  UNL        -0.0839
     34 CL        -11.0578   -2.8349   57.4868 Cl      1  UNL        -0.0843
     35 C          -1.8420    0.3291   45.9926 C.3     1  UNL        -0.0394
     36 H          -1.7611    4.7076   44.3339 H       1  UNL         0.0623
     37 H          -1.9253    2.2496   44.0830 H       1  UNL         0.0626
     38 H          -1.3791    4.2687   48.5892 H       1  UNL         0.0627
     39 H          -1.4820    5.7123   46.5944 H       1  UNL         0.0623
     40 H          -1.4660    0.4938   48.3873 H       1  UNL         0.0624
     41 H           3.1095    1.7399   49.6014 H       1  UNL         0.0627
     42 H           2.6697    2.3778   51.9788 H       1  UNL         0.0639
     43 H           0.2853    2.5979   52.7526 H       1  UNL         0.0840
     44 H           0.9003    0.2090   47.4424 H       1  UNL         0.0280
     45 H           2.3314    1.2443   47.4146 H       1  UNL         0.0280
     46 H           0.7628    1.9124   46.9554 H       1  UNL         0.0280
     47 H          -3.3879    0.6475   49.4297 H       1  UNL         0.1508
     48 H          -4.8593    4.1227   52.0178 H       1  UNL         0.0631
     49 H          -7.0284    3.6022   53.0463 H       1  UNL         0.0626
     50 H          -7.0526   -0.2483   51.1041 H       1  UNL         0.0626
     51 H          -4.8747    0.2566   50.0620 H       1  UNL         0.0631
     52 H          -9.0244    2.2698   53.0723 H       1  UNL         0.0479
     53 H          -8.3718    0.7512   53.7098 H       1  UNL         0.0479
     54 H          -8.9969   -0.3536   51.7282 H       1  UNL         0.1229
     55 H         -11.3864   -0.0503   51.5681 H       1  UNL         0.0480
     56 H         -11.2173    1.4167   52.5380 H       1  UNL         0.0480
     57 H         -10.3793    1.2698   54.9094 H       1  UNL         0.0627
     58 H         -10.4883   -0.0517   57.0071 H       1  UNL         0.0639
     59 H         -11.4605   -3.5878   54.7379 H       1  UNL         0.0654
     60 H          -1.7967    0.0664   44.9282 H       1  UNL         0.0280
     61 H          -2.7805   -0.0764   46.3906 H       1  UNL         0.0280
     62 H          -1.0092   -0.1857   46.4878 H       1  UNL         0.0280
@<TRIPOS>BOND
     1     1     2   ar
     2     1     6   ar
     3     1    36    1
     4     2     3   ar
     5     2    37    1
     6     3     4   ar
     7     3    35    1
     8     4     5   ar
     9     4     7    1
    10     5     6   ar
    11     5    38    1
    12     6    39    1
    13     7     8    1
    14     7    15    1
    15     7    40    1
    16     8     9   ar
    17     8    13   ar
    18     9    10   ar
    19     9    14    1
    20    10    11   ar
    21    10    41    1
    22    11    12   ar
    23    11    42    1
    24    12    13   ar
    25    12    43    1
    26    14    44    1
    27    14    45    1
    28    14    46    1
    29    15    16   am
    30    15    47    1
    31    16    17    2
    32    16    18    1
    33    18    19   ar
    34    18    23   ar
    35    19    20   ar
    36    19    48    1
    37    20    21   ar
    38    20    49    1
    39    21    22   ar
    40    21    24    1
    41    22    23   ar
    42    22    50    1
    43    23    51    1
    44    24    25    1
    45    24    52    1
    46    24    53    1
    47    25    26    1
    48    25    54    1
    49    26    27    1
    50    26    55    1
    51    26    56    1
    52    27    28   ar
    53    27    32   ar
    54    28    29   ar
    55    28    57    1
    56    29    30   ar
    57    29    58    1
    58    30    31   ar
    59    30    34    1
    60    31    32   ar
    61    31    59    1
    62    32    33    1
    63    35    60    1
    64    35    61    1
    65    35    62    1
@<TRIPOS>SUBSTRUCTURE
     1 UNL         1 TEMP              0 ****  ****    0 ROOT


##########                                Name:    ZINC000762187039
##########                DOCK_Rotatable_Bonds:                   9
##########                         Heavy_Atoms:                  25
##########                    Molecular_Weight:             354.473
##########                DOCK_Rotatable_Bonds:                   9
##########                       Formal_Charge:        -1.78814e-07
##########                     HBond_Acceptors:                   5
##########                        HBond_Donors:                   1
##########                         Heavy_Atoms:                  25
##########                          Grid_Score:          -38.252991
##########                     Grid_vdw_energy:          -38.269154
##########                      Grid_es_energy:            0.016164
##########           Internal_energy_repulsive:            7.810246

@<TRIPOS>MOLECULE
ZINC000762187039
 47 49 1 0 0
SMALL
USER_CHARGES


@<TRIPOS>ATOM
      1 C1         -8.6064    2.2058   52.1900 C.3     1  ZINC000762187039   -0.0800
      2 C2         -8.9603    0.7429   52.1136 C.2     1  ZINC000762187039    0.0500
      3 N3        -10.1414    0.2582   52.3002 N.2     1  ZINC000762187039   -0.4700
      4 C4        -10.2781   -1.0483   52.1955 C.2     1  ZINC000762187039    0.0700
      5 C5        -11.5990   -1.7478   52.3878 C.3     1  ZINC000762187039   -0.0300
      6 C6        -11.3577   -3.1427   52.9682 C.3     1  ZINC000762187039   -0.1300
      7 C7        -12.6665   -3.7260   53.4349 C.2     1  ZINC000762187039    0.5200
      8 O8        -13.7056   -3.3756   52.9167 O.2     1  ZINC000762187039   -0.5400
      9 N9        -12.6824   -4.6368   54.4281 N.am    1  ZINC000762187039   -0.7300
     10 C10       -13.9548   -5.2026   54.8829 C.3     1  ZINC000762187039    0.1200
     11 C11       -13.8140   -5.6759   56.3311 C.3     1  ZINC000762187039   -0.1300
     12 C12       -13.3632   -4.5062   57.2084 C.3     1  ZINC000762187039    0.0600
     13 O13       -11.9354   -4.4480   57.2277 O.3     1  ZINC000762187039   -0.3100
     14 C14       -11.3578   -3.8253   58.2884 C.ar    1  ZINC000762187039    0.1300
     15 C15       -10.2752   -4.4275   58.9363 C.ar    1  ZINC000762187039   -0.1900
     16 C16        -9.6760   -3.8289   60.0006 C.ar    1  ZINC000762187039   -0.0600
     17 C17       -10.1486   -2.5869   60.4588 C.ar    1  ZINC000762187039   -0.0800
     18 C18        -9.5530   -1.9403   61.5551 C.ar    1  ZINC000762187039   -0.0900
     19 C19       -10.0360   -0.7381   61.9720 C.ar    1  ZINC000762187039   -0.1300
     20 C20       -11.1150   -0.1355   61.3275 C.ar    1  ZINC000762187039   -0.1000
     21 C21       -11.7171   -0.7318   60.2628 C.ar    1  ZINC000762187039   -0.1200
     22 C22       -11.2461   -1.9741   59.8032 C.ar    1  ZINC000762187039   -0.0100
     23 C23       -11.8391   -2.6164   58.7043 C.ar    1  ZINC000762187039   -0.1500
     24 C24        -9.1495   -1.7021   51.9042 C.2     1  ZINC000762187039   -0.2600
     25 S25        -7.8565   -0.5138   51.7598 S.3     1  ZINC000762187039    0.1200
     26 H26        -7.5433    2.3336   51.9859 H       1  ZINC000762187039    0.0800
     27 H27        -9.1870    2.7592   51.4520 H       1  ZINC000762187039    0.0900
     28 H28        -8.8327    2.5828   53.1874 H       1  ZINC000762187039    0.0900
     29 H29       -12.2191   -1.1711   53.0741 H       1  ZINC000762187039    0.0900
     30 H30       -12.1062   -1.8368   51.4271 H       1  ZINC000762187039    0.0900
     31 H31       -10.9263   -3.7858   52.2012 H       1  ZINC000762187039    0.0900
     32 H32       -10.6705   -3.0715   53.8113 H       1  ZINC000762187039    0.1000
     33 H33       -11.8512   -4.9179   54.8418 H       1  ZINC000762187039    0.4000
     34 H34       -14.7327   -4.4414   54.8236 H       1  ZINC000762187039    0.0700
     35 H35       -14.2241   -6.0475   54.2492 H       1  ZINC000762187039    0.0700
     36 H36       -14.7750   -6.0476   56.6869 H       1  ZINC000762187039    0.0800
     37 H37       -13.0740   -6.4746   56.3820 H       1  ZINC000762187039    0.0800
     38 H38       -13.7593   -3.5749   56.8038 H       1  ZINC000762187039    0.0700
     39 H39       -13.7348   -4.6487   58.2231 H       1  ZINC000762187039    0.0700
     40 H40        -9.9094   -5.3818   58.5869 H       1  ZINC000762187039    0.1300
     41 H41        -8.8409   -4.3060   60.4918 H       1  ZINC000762187039    0.1300
     42 H42        -8.7163   -2.3951   62.0646 H       1  ZINC000762187039    0.1300
     43 H43        -9.5763   -0.2437   62.8150 H       1  ZINC000762187039    0.1200
     44 H44       -11.4789    0.8188   61.6788 H       1  ZINC000762187039    0.1200
     45 H45       -12.5523   -0.2531   59.7733 H       1  ZINC000762187039    0.1300
     46 H46       -12.6732   -2.1590   58.1931 H       1  ZINC000762187039    0.1300
     47 H47        -9.0486   -2.7696   51.7762 H       1  ZINC000762187039    0.1800
@<TRIPOS>BOND
     1     1     2    1
     2     1    26    1
     3     1    27    1
     4     1    28    1
     5     2    25    1
     6     2     3    2
     7     3     4    1
     8     4     5    1
     9     4    24    2
    10     5     6    1
    11     5    29    1
    12     5    30    1
    13     6     7    1
    14     6    31    1
    15     6    32    1
    16     7     8    2
    17     7     9   am
    18     9    10    1
    19     9    33    1
    20    10    11    1
    21    10    34    1
    22    10    35    1
    23    11    12    1
    24    11    36    1
    25    11    37    1
    26    12    13    1
    27    12    38    1
    28    12    39    1
    29    13    14    1
    30    14    23   ar
    31    14    15   ar
    32    15    16   ar
    33    15    40    1
    34    16    17   ar
    35    16    41    1
    36    17    22   ar
    37    17    18   ar
    38    18    19   ar
    39    18    42    1
    40    19    20   ar
    41    19    43    1
    42    20    21   ar
    43    20    44    1
    44    21    22   ar
    45    21    45    1
    46    22    23   ar
    47    23    46    1
    48    24    25    1
    49    24    47    1
@<TRIPOS>SUBSTRUCTURE
     1 ZINC000762187039        1 TEMP              0 ****  ****    0 ROOT


##########                                Name:    ZINC000506566356
##########                DOCK_Rotatable_Bonds:                  10
##########                         Heavy_Atoms:                  28
##########                    Molecular_Weight:               415.9
##########                DOCK_Rotatable_Bonds:                  10
##########                       Formal_Charge:           0.0199998
##########                     HBond_Acceptors:                   8
##########                        HBond_Donors:                   2
##########                         Heavy_Atoms:                  28
##########                          Grid_Score:          -38.119762
##########                     Grid_vdw_energy:          -37.169201
##########                      Grid_es_energy:           -0.950561
##########           Internal_energy_repulsive:           12.359672

@<TRIPOS>MOLECULE
ZINC000506566356
 46 48 1 0 0
SMALL
USER_CHARGES


@<TRIPOS>ATOM
      1 O1        -10.3424   -2.2792   51.7625 O.2     1  ZINC000506566356   -0.5100
      2 C2        -10.6175   -1.6142   52.7397 C.2     1  ZINC000506566356    0.5100
      3 N3        -11.7951   -1.7965   53.3692 N.am    1  ZINC000506566356   -0.7000
      4 C4        -12.7458   -2.7933   52.8704 C.3     1  ZINC000506566356    0.1200
      5 C5        -12.4254   -4.1567   53.4863 C.3     1  ZINC000506566356   -0.0900
      6 C6        -13.2474   -4.3497   54.7346 C.ar    1  ZINC000506566356   -0.0700
      7 C7        -13.7676   -5.5948   55.0337 C.ar    1  ZINC000506566356   -0.1100
      8 C8        -14.5214   -5.7728   56.1790 C.ar    1  ZINC000506566356   -0.1000
      9 C9        -14.7556   -4.7056   57.0251 C.ar    1  ZINC000506566356   -0.1100
     10 C10       -14.2352   -3.4588   56.7262 C.ar    1  ZINC000506566356   -0.0300
     11 Cl11      -14.5285   -2.1178   57.7889 Cl      1  ZINC000506566356   -0.0700
     12 C12       -13.4762   -3.2827   55.5832 C.ar    1  ZINC000506566356   -0.1000
     13 C13        -9.6484   -0.5981   53.2483 C.2     1  ZINC000506566356    0.5100
     14 O14        -8.6228   -0.3784   52.6372 O.2     1  ZINC000506566356   -0.5000
     15 N15        -9.9125    0.0749   54.3857 N.am    1  ZINC000506566356   -0.6300
     16 C16        -9.0048    1.0266   54.8621 C.ar    1  ZINC000506566356    0.1100
     17 C17        -8.5245    2.0151   54.0151 C.ar    1  ZINC000506566356   -0.0800
     18 C18        -7.6276    2.9542   54.4883 C.ar    1  ZINC000506566356   -0.1400
     19 C19        -7.2069    2.9118   55.8046 C.ar    1  ZINC000506566356   -0.0900
     20 C20        -7.6806    1.9295   56.6549 C.ar    1  ZINC000506566356   -0.1900
     21 C21        -8.5844    0.9880   56.1908 C.ar    1  ZINC000506566356    0.1200
     22 O22        -9.0510    0.0216   57.0255 O.3     1  ZINC000506566356   -0.3100
     23 C23        -9.9971    0.4232   58.0183 C.3     1  ZINC000506566356    0.1400
     24 C24        -9.9312   -0.5250   59.1877 C.2     1  ZINC000506566356    0.0500
     25 C25       -10.3262   -0.1840   60.4180 C.2     1  ZINC000506566356   -0.2300
     26 S26       -10.0805   -1.5749   61.4714 S.3     1  ZINC000506566356    0.1400
     27 C27        -9.4712   -2.4766   60.1527 C.2     1  ZINC000506566356    0.0200
     28 N28        -9.4845   -1.7600   59.0798 N.2     1  ZINC000506566356   -0.4700
     29 H29       -12.0133   -1.2677   54.1526 H       1  ZINC000506566356    0.4200
     30 H30       -13.7586   -2.4992   53.1457 H       1  ZINC000506566356    0.0800
     31 H31       -12.6685   -2.8577   51.7850 H       1  ZINC000506566356    0.0800
     32 H32       -12.6622   -4.9436   52.7701 H       1  ZINC000506566356    0.0900
     33 H33       -11.3659   -4.2016   53.7383 H       1  ZINC000506566356    0.0900
     34 H34       -13.5854   -6.4290   54.3723 H       1  ZINC000506566356    0.1300
     35 H35       -14.9275   -6.7459   56.4122 H       1  ZINC000506566356    0.1300
     36 H36       -15.3451   -4.8446   57.9193 H       1  ZINC000506566356    0.1300
     37 H37       -13.0697   -2.3098   55.3494 H       1  ZINC000506566356    0.1300
     38 H38       -10.7321   -0.1006   54.8740 H       1  ZINC000506566356    0.4300
     39 H39        -8.8512    2.0505   52.9864 H       1  ZINC000506566356    0.1500
     40 H40        -7.2542    3.7230   53.8281 H       1  ZINC000506566356    0.1300
     41 H41        -6.5060    3.6478   56.1699 H       1  ZINC000506566356    0.1300
     42 H42        -7.3491    1.8989   57.6824 H       1  ZINC000506566356    0.1400
     43 H43        -9.7631    1.4330   58.3556 H       1  ZINC000506566356    0.0900
     44 H44       -11.0003    0.4057   57.5924 H       1  ZINC000506566356    0.0900
     45 H45       -10.7254    0.7747   60.7143 H       1  ZINC000506566356    0.1800
     46 H46        -9.1289   -3.4995   60.2088 H       1  ZINC000506566356    0.2100
@<TRIPOS>BOND
     1     1     2    2
     2     2     3   am
     3     2    13    1
     4     3     4    1
     5     3    29    1
     6     4     5    1
     7     4    30    1
     8     4    31    1
     9     5     6    1
    10     5    32    1
    11     5    33    1
    12     6    12   ar
    13     6     7   ar
    14     7     8   ar
    15     7    34    1
    16     8     9   ar
    17     8    35    1
    18     9    10   ar
    19     9    36    1
    20    10    11    1
    21    10    12   ar
    22    12    37    1
    23    13    14    2
    24    13    15   am
    25    15    16    1
    26    15    38    1
    27    16    21   ar
    28    16    17   ar
    29    17    18   ar
    30    17    39    1
    31    18    19   ar
    32    18    40    1
    33    19    20   ar
    34    19    41    1
    35    20    21   ar
    36    20    42    1
    37    21    22    1
    38    22    23    1
    39    23    24    1
    40    23    43    1
    41    23    44    1
    42    24    28    1
    43    24    25    2
    44    25    26    1
    45    25    45    1
    46    26    27    1
    47    27    28    2
    48    27    46    1
@<TRIPOS>SUBSTRUCTURE
     1 ZINC000506566356        1 TEMP              0 ****  ****    0 ROOT


##########                                Name:    ZINC000444811358
##########                DOCK_Rotatable_Bonds:                  11
##########                         Heavy_Atoms:                  27
##########                    Molecular_Weight:             374.455
##########                DOCK_Rotatable_Bonds:                  11
##########                       Formal_Charge:          0.00999966
##########                     HBond_Acceptors:                   6
##########                        HBond_Donors:                   2
##########                         Heavy_Atoms:                  27
##########                          Grid_Score:          -38.118076
##########                     Grid_vdw_energy:          -37.520061
##########                      Grid_es_energy:           -0.598014
##########           Internal_energy_repulsive:           22.794214

@<TRIPOS>MOLECULE
ZINC000444811358
 54 55 1 0 0
SMALL
USER_CHARGES


@<TRIPOS>ATOM
      1 C1         -9.6033    0.0481   63.3875 C.3     1  ZINC000444811358   -0.1100
      2 C2        -10.0423   -0.9450   62.3426 C.ar    1  ZINC000444811358   -0.1300
      3 C3         -9.2500   -2.0409   62.0565 C.ar    1  ZINC000444811358   -0.0700
      4 C4         -9.6492   -2.9532   61.0988 C.ar    1  ZINC000444811358   -0.1500
      5 C5        -10.8482   -2.7697   60.4228 C.ar    1  ZINC000444811358    0.1700
      6 N6        -11.2542   -3.6928   59.4529 N.am    1  ZINC000444811358   -0.6800
      7 C7        -11.2379   -3.3515   58.1491 C.2     1  ZINC000444811358    0.5200
      8 O8        -10.8712   -2.2443   57.8166 O.2     1  ZINC000444811358   -0.5000
      9 C9        -11.6752   -4.3458   57.1045 C.3     1  ZINC000444811358    0.0200
     10 N10       -12.9468   -3.9077   56.5135 N.3     1  ZINC000444811358   -0.5000
     11 C11       -12.9668   -4.1541   55.0655 C.3     1  ZINC000444811358    0.0200
     12 C12       -11.9964   -3.1959   54.3717 C.3     1  ZINC000444811358    0.1100
     13 H13       -11.7593   -2.3702   55.0424 H       1  ZINC000444811358    0.1200
     14 O14       -10.7967   -3.8949   54.0340 O.3     1  ZINC000444811358   -0.5400
     15 C15       -12.6434   -2.6486   53.0978 C.3     1  ZINC000444811358    0.0300
     16 O16       -12.2955   -1.2716   52.9405 O.3     1  ZINC000444811358   -0.3000
     17 C17       -10.9851   -0.9878   52.7187 C.ar    1  ZINC000444811358    0.1300
     18 C18       -10.2329   -1.7928   51.8755 C.ar    1  ZINC000444811358   -0.2100
     19 C19        -8.9012   -1.5019   51.6511 C.ar    1  ZINC000444811358   -0.0800
     20 C20        -8.3179   -0.4097   52.2664 C.ar    1  ZINC000444811358   -0.1600
     21 C21        -9.0652    0.3938   53.1075 C.ar    1  ZINC000444811358   -0.0800
     22 C22       -10.3989    0.1108   53.3303 C.ar    1  ZINC000444811358   -0.1500
     23 C23       -14.0862   -4.5585   57.1740 C.3     1  ZINC000444811358    0.0700
     24 C24       -15.3325   -3.6845   57.0193 C.3     1  ZINC000444811358   -0.1400
     25 C25       -14.3373   -5.9235   56.5302 C.3     1  ZINC000444811358   -0.1900
     26 C26       -11.6437   -1.6687   60.7112 C.ar    1  ZINC000444811358   -0.1500
     27 C27       -11.2419   -0.7611   61.6746 C.ar    1  ZINC000444811358    0.1200
     28 F28       -12.0145    0.3106   61.9566 F       1  ZINC000444811358   -0.1300
     29 H29        -9.9836   -0.2578   64.3621 H       1  ZINC000444811358    0.0700
     30 H30        -8.5144    0.0861   63.4180 H       1  ZINC000444811358    0.0700
     31 H31        -9.9944    1.0345   63.1383 H       1  ZINC000444811358    0.0700
     32 H32        -8.3175   -2.1840   62.5820 H       1  ZINC000444811358    0.1400
     33 H33        -9.0288   -3.8086   60.8759 H       1  ZINC000444811358    0.1300
     34 H34       -11.5474   -4.5783   59.7187 H       1  ZINC000444811358    0.4100
     35 H35       -10.9160   -4.4117   56.3252 H       1  ZINC000444811358    0.1300
     36 H36       -11.8074   -5.3241   57.5667 H       1  ZINC000444811358    0.0700
     37 H37       -12.6655   -5.1827   54.8677 H       1  ZINC000444811358    0.0500
     38 H38       -13.9743   -3.9906   54.6830 H       1  ZINC000444811358    0.1000
     39 H39       -10.1045   -3.8362   54.7069 H       1  ZINC000444811358    0.3700
     40 H40       -12.2865   -3.2142   52.2371 H       1  ZINC000444811358    0.0600
     41 H41       -13.7268   -2.7436   53.1709 H       1  ZINC000444811358    0.0700
     42 H42       -10.6880   -2.6464   51.3951 H       1  ZINC000444811358    0.1300
     43 H43        -8.3153   -2.1282   50.9948 H       1  ZINC000444811358    0.1200
     44 H44        -7.2765   -0.1841   52.0900 H       1  ZINC000444811358    0.1200
     45 H45        -8.6071    1.2462   53.5873 H       1  ZINC000444811358    0.1300
     46 H46       -10.9822    0.7387   53.9874 H       1  ZINC000444811358    0.1300
     47 H47       -13.8648   -4.6914   58.2330 H       1  ZINC000444811358    0.0900
     48 H48       -15.6314   -3.6602   55.9713 H       1  ZINC000444811358    0.0500
     49 H49       -16.1432   -4.0984   57.6189 H       1  ZINC000444811358    0.0600
     50 H50       -15.1108   -2.6723   57.3574 H       1  ZINC000444811358    0.0700
     51 H51       -13.4495   -6.5461   56.6404 H       1  ZINC000444811358    0.0500
     52 H52       -15.1827   -6.4062   57.0203 H       1  ZINC000444811358    0.0700
     53 H53       -14.5587   -5.7906   55.4713 H       1  ZINC000444811358    0.0600
     54 H54       -12.5765   -1.5232   60.1868 H       1  ZINC000444811358    0.1500
@<TRIPOS>BOND
     1     1     2    1
     2     1    29    1
     3     1    30    1
     4     1    31    1
     5     2    27   ar
     6     2     3   ar
     7     3     4   ar
     8     3    32    1
     9     4     5   ar
    10     4    33    1
    11     5     6    1
    12     5    26   ar
    13     6     7   am
    14     6    34    1
    15     7     8    2
    16     7     9    1
    17     9    10    1
    18     9    35    1
    19     9    36    1
    20    10    11    1
    21    10    23    1
    22    11    12    1
    23    11    37    1
    24    11    38    1
    25    12    13    1
    26    12    14    1
    27    12    15    1
    28    14    39    1
    29    15    16    1
    30    15    40    1
    31    15    41    1
    32    16    17    1
    33    17    22   ar
    34    17    18   ar
    35    18    19   ar
    36    18    42    1
    37    19    20   ar
    38    19    43    1
    39    20    21   ar
    40    20    44    1
    41    21    22   ar
    42    21    45    1
    43    22    46    1
    44    23    24    1
    45    23    25    1
    46    23    47    1
    47    24    48    1
    48    24    49    1
    49    24    50    1
    50    25    51    1
    51    25    52    1
    52    25    53    1
    53    26    27   ar
    54    26    54    1
    55    27    28    1
@<TRIPOS>SUBSTRUCTURE
     1 ZINC000444811358        1 TEMP              0 ****  ****    0 ROOT


##########                                Name:    ZINC001105793963
##########                DOCK_Rotatable_Bonds:                   9
##########                         Heavy_Atoms:                  24
##########                    Molecular_Weight:             337.422
##########                DOCK_Rotatable_Bonds:                   9
##########                       Formal_Charge:          -0.0100003
##########                     HBond_Acceptors:                   8
##########                        HBond_Donors:                   2
##########                         Heavy_Atoms:                  24
##########                          Grid_Score:          -38.095589
##########                     Grid_vdw_energy:          -36.991680
##########                      Grid_es_energy:           -1.103908
##########           Internal_energy_repulsive:            9.952806

@<TRIPOS>MOLECULE
ZINC001105793963
 51 52 1 0 0
SMALL
USER_CHARGES


@<TRIPOS>ATOM
      1 C1         -7.5135    0.9353   51.1193 C.3     1  ZINC001105793963   -0.1500
      2 C2         -7.6970   -0.5141   51.5737 C.3     1  ZINC001105793963   -0.0300
      3 C3         -9.1585   -0.7796   51.8280 C.2     1  ZINC001105793963    0.1800
      4 N4         -9.7754   -1.9306   51.7085 N.2     1  ZINC001105793963   -0.4800
      5 C5        -11.0577   -1.6896   52.0350 C.2     1  ZINC001105793963    0.1700
      6 C6        -12.1777   -2.6978   52.0547 C.3     1  ZINC001105793963    0.1500
      7 N7        -11.7289   -3.9149   52.7441 N.3     1  ZINC001105793963   -0.6900
      8 C8        -12.7628   -4.4117   53.6618 C.3     1  ZINC001105793963    0.0700
      9 C9        -12.7254   -3.6014   54.9590 C.3     1  ZINC001105793963   -0.1000
     10 H10       -13.2241   -2.6421   54.8201 H       1  ZINC001105793963    0.1000
     11 C11       -11.2664   -3.3867   55.4160 C.3     1  ZINC001105793963    0.1100
     12 N12       -11.3192   -3.4841   56.8933 N.am    1  ZINC001105793963   -0.6200
     13 C13       -10.6507   -2.7386   57.7953 C.2     1  ZINC001105793963    0.5300
     14 O14        -9.8989   -1.8636   57.4211 O.2     1  ZINC001105793963   -0.5300
     15 C15       -10.8373   -2.9923   59.2691 C.3     1  ZINC001105793963    0.1300
     16 H16       -11.8775   -3.2531   59.4640 H       1  ZINC001105793963    0.1100
     17 C17        -9.9318   -4.1453   59.7067 C.3     1  ZINC001105793963   -0.1600
     18 N18       -10.4876   -1.7844   60.0207 N.am    1  ZINC001105793963   -0.7200
     19 C19       -11.3452   -1.2868   60.9336 C.2     1  ZINC001105793963    0.5200
     20 C20       -10.9864   -0.0433   61.7054 C.3     1  ZINC001105793963   -0.1700
     21 O21       -12.4058   -1.8399   61.1339 O.2     1  ZINC001105793963   -0.5500
     22 C22       -12.2736   -4.5868   57.1541 C.3     1  ZINC001105793963    0.1000
     23 C23       -13.3920   -4.3914   56.1043 C.3     1  ZINC001105793963   -0.1000
     24 H24       -13.7452   -5.3571   55.7427 H       1  ZINC001105793963    0.0900
     25 C25       -14.5511   -3.5929   56.7043 C.3     1  ZINC001105793963   -0.1500
     26 N26       -11.1534   -0.4280   52.3310 N.2     1  ZINC001105793963   -0.3700
     27 O27       -10.0723    0.1115   52.2240 O.3     1  ZINC001105793963    0.0800
     28 H28        -8.0781    1.1028   50.2021 H       1  ZINC001105793963    0.0600
     29 H29        -7.8752    1.6083   51.8966 H       1  ZINC001105793963    0.0600
     30 H30        -6.4564    1.1273   50.9354 H       1  ZINC001105793963    0.0800
     31 H31        -7.3353   -1.1872   50.7964 H       1  ZINC001105793963    0.1100
     32 H32        -7.1324   -0.6816   52.4909 H       1  ZINC001105793963    0.1000
     33 H33       -13.0354   -2.2778   52.5800 H       1  ZINC001105793963    0.1000
     34 H34       -12.4629   -2.9438   51.0317 H       1  ZINC001105793963    0.0700
     35 H35       -11.4604   -4.6274   52.0820 H       1  ZINC001105793963    0.3500
     36 H36       -13.7427   -4.3070   53.1960 H       1  ZINC001105793963    0.0800
     37 H37       -12.5767   -5.4624   53.8843 H       1  ZINC001105793963    0.0400
     38 H38       -10.6217   -4.1644   55.0066 H       1  ZINC001105793963    0.0700
     39 H39       -10.9141   -2.4009   55.1124 H       1  ZINC001105793963    0.0900
     40 H40       -10.0667   -4.3288   60.7727 H       1  ZINC001105793963    0.0800
     41 H41       -10.1919   -5.0440   59.1475 H       1  ZINC001105793963    0.0800
     42 H42        -8.8915   -3.8845   59.5118 H       1  ZINC001105793963    0.0600
     43 H43        -9.6388   -1.3428   59.8613 H       1  ZINC001105793963    0.4100
     44 H44       -10.0033    0.3081   61.3917 H       1  ZINC001105793963    0.0800
     45 H45       -11.7280    0.7315   61.5114 H       1  ZINC001105793963    0.1000
     46 H46       -10.9679   -0.2699   62.7714 H       1  ZINC001105793963    0.1000
     47 H47       -11.7861   -5.5519   57.0162 H       1  ZINC001105793963    0.0800
     48 H48       -12.6811   -4.5064   58.1617 H       1  ZINC001105793963    0.0900
     49 H49       -14.1855   -2.6258   57.0496 H       1  ZINC001105793963    0.0600
     50 H50       -15.3190   -3.4414   55.9458 H       1  ZINC001105793963    0.0600
     51 H51       -14.9741   -4.1426   57.5451 H       1  ZINC001105793963    0.0600
@<TRIPOS>BOND
     1     1     2    1
     2     1    28    1
     3     1    29    1
     4     1    30    1
     5     2     3    1
     6     2    31    1
     7     2    32    1
     8     3    27    1
     9     3     4    2
    10     4     5    1
    11     5     6    1
    12     5    26    2
    13     6     7    1
    14     6    33    1
    15     6    34    1
    16     7     8    1
    17     7    35    1
    18     8     9    1
    19     8    36    1
    20     8    37    1
    21     9    10    1
    22     9    23    1
    23     9    11    1
    24    11    12    1
    25    11    38    1
    26    11    39    1
    27    12    13   am
    28    12    22    1
    29    13    14    2
    30    13    15    1
    31    15    16    1
    32    15    17    1
    33    15    18    1
    34    17    40    1
    35    17    41    1
    36    17    42    1
    37    18    19   am
    38    18    43    1
    39    19    20    1
    40    19    21    2
    41    20    44    1
    42    20    45    1
    43    20    46    1
    44    22    23    1
    45    22    47    1
    46    22    48    1
    47    23    24    1
    48    23    25    1
    49    25    49    1
    50    25    50    1
    51    25    51    1
    52    26    27    1
@<TRIPOS>SUBSTRUCTURE
     1 ZINC001105793963        1 TEMP              0 ****  ****    0 ROOT


##########                                Name:    ZINC000642096826
##########                DOCK_Rotatable_Bonds:                  12
##########                         Heavy_Atoms:                  25
##########                    Molecular_Weight:             345.485
##########                DOCK_Rotatable_Bonds:                  12
##########                       Formal_Charge:          0.00999919
##########                     HBond_Acceptors:                   5
##########                        HBond_Donors:                   1
##########                         Heavy_Atoms:                  25
##########                          Grid_Score:          -38.045826
##########                     Grid_vdw_energy:          -36.683319
##########                      Grid_es_energy:           -1.362508
##########           Internal_energy_repulsive:           19.139242

@<TRIPOS>MOLECULE
ZINC000642096826
 56 57 1 0 0
SMALL
USER_CHARGES


@<TRIPOS>ATOM
      1 C1        -16.7883   -1.4121   58.1272 C.3     1  ZINC000642096826   -0.1500
      2 C2        -16.5593   -2.3527   59.3121 C.3     1  ZINC000642096826   -0.1400
      3 C3        -16.0128   -3.6886   58.8046 C.3     1  ZINC000642096826    0.1200
      4 N4        -14.7793   -3.4563   58.0492 N.am    1  ZINC000642096826   -0.6200
      5 C5        -14.7690   -3.6241   56.5939 C.3     1  ZINC000642096826    0.1100
      6 C6        -14.3459   -5.0532   56.2482 C.3     1  ZINC000642096826   -0.1400
      7 C7        -14.3985   -5.2480   54.7316 C.3     1  ZINC000642096826   -0.1500
      8 C8        -13.6540   -3.0880   58.6931 C.2     1  ZINC000642096826    0.5200
      9 O9        -13.6622   -2.9505   59.8980 O.2     1  ZINC000642096826   -0.5200
     10 C10       -12.3855   -2.8473   57.9158 C.3     1  ZINC000642096826    0.0400
     11 N11       -11.2384   -3.3520   58.6821 N.3     1  ZINC000642096826   -0.5200
     12 C12       -10.7959   -4.6558   58.1700 C.3     1  ZINC000642096826    0.0100
     13 C13       -10.1348   -2.3825   58.6778 C.3     1  ZINC000642096826    0.0900
     14 C14       -10.0404   -1.7228   60.0294 C.ar    1  ZINC000642096826   -0.0500
     15 C15       -10.6510   -0.4998   60.2430 C.ar    1  ZINC000642096826   -0.1000
     16 C16       -10.5680    0.1099   61.4778 C.ar    1  ZINC000642096826   -0.0600
     17 C17        -9.8664   -0.5103   62.5130 C.ar    1  ZINC000642096826   -0.1400
     18 C18        -9.7738    0.1370   63.8390 C.2     1  ZINC000642096826    0.5600
     19 O19       -10.7695    0.5994   64.3605 O.2     1  ZINC000642096826   -0.5300
     20 N20        -8.5851    0.2142   64.4695 N.am    1  ZINC000642096826   -0.7000
     21 C21        -8.4929    0.8572   65.7827 C.3     1  ZINC000642096826    0.0800
     22 C22        -8.0529   -0.0095   66.9644 C.3     1  ZINC000642096826   -0.1900
     23 C23        -7.0980    1.0363   66.3852 C.3     1  ZINC000642096826   -0.1900
     24 C24        -9.2531   -1.7442   62.2910 C.ar    1  ZINC000642096826   -0.0900
     25 C25        -9.3482   -2.3454   61.0529 C.ar    1  ZINC000642096826   -0.1200
     26 H26       -15.8444   -1.2449   57.6083 H       1  ZINC000642096826    0.0600
     27 H27       -17.5059   -1.8609   57.4405 H       1  ZINC000642096826    0.0600
     28 H28       -17.1776   -0.4604   58.4888 H       1  ZINC000642096826    0.0600
     29 H29       -15.8416   -1.9038   59.9988 H       1  ZINC000642096826    0.0600
     30 H30       -17.5032   -2.5198   59.8310 H       1  ZINC000642096826    0.0600
     31 H31       -15.8025   -4.3407   59.6522 H       1  ZINC000642096826    0.0800
     32 H32       -16.7517   -4.1610   58.1572 H       1  ZINC000642096826    0.0800
     33 H33       -15.7673   -3.4352   56.1992 H       1  ZINC000642096826    0.0800
     34 H34       -14.0644   -2.9196   56.1519 H       1  ZINC000642096826    0.0800
     35 H35       -13.3295   -5.2267   56.6017 H       1  ZINC000642096826    0.0700
     36 H36       -15.0232   -5.7590   56.7289 H       1  ZINC000642096826    0.0700
     37 H37       -14.0972   -6.2661   54.4854 H       1  ZINC000642096826    0.0600
     38 H38       -15.4150   -5.0744   54.3781 H       1  ZINC000642096826    0.0600
     39 H39       -13.7212   -4.5422   54.2509 H       1  ZINC000642096826    0.0600
     40 H40       -12.4410   -3.3675   56.9597 H       1  ZINC000642096826    0.0600
     41 H41       -12.2638   -1.7782   57.7413 H       1  ZINC000642096826    0.1000
     42 H42       -10.5012   -4.5548   57.1255 H       1  ZINC000642096826    0.0200
     43 H43        -9.9457   -5.0064   58.7551 H       1  ZINC000642096826    0.0700
     44 H44       -11.6123   -5.3736   58.2495 H       1  ZINC000642096826    0.0900
     45 H45        -9.1996   -2.8977   58.4588 H       1  ZINC000642096826    0.0500
     46 H46       -10.3195   -1.6252   57.9160 H       1  ZINC000642096826    0.0900
     47 H47       -11.1935   -0.0210   59.4412 H       1  ZINC000642096826    0.1300
     48 H48       -11.0444    1.0649   61.6431 H       1  ZINC000642096826    0.1400
     49 H49        -7.7907   -0.1559   64.0539 H       1  ZINC000642096826    0.4000
     50 H50        -9.2289    1.6373   65.9769 H       1  ZINC000642096826    0.1400
     51 H51        -8.4996    0.2002   67.9362 H       1  ZINC000642096826    0.1000
     52 H52        -7.8320   -1.0581   66.7647 H       1  ZINC000642096826    0.1000
     53 H53        -6.2489    0.6757   65.8046 H       1  ZINC000642096826    0.1000
     54 H54        -6.9164    1.9341   66.9761 H       1  ZINC000642096826    0.1100
     55 H55        -8.7086   -2.2291   63.0877 H       1  ZINC000642096826    0.1200
     56 H56        -8.8744   -3.3005   60.8799 H       1  ZINC000642096826    0.1300
@<TRIPOS>BOND
     1     1     2    1
     2     1    26    1
     3     1    27    1
     4     1    28    1
     5     2     3    1
     6     2    29    1
     7     2    30    1
     8     3     4    1
     9     3    31    1
    10     3    32    1
    11     4     5    1
    12     4     8   am
    13     5     6    1
    14     5    33    1
    15     5    34    1
    16     6     7    1
    17     6    35    1
    18     6    36    1
    19     7    37    1
    20     7    38    1
    21     7    39    1
    22     8     9    2
    23     8    10    1
    24    10    11    1
    25    10    40    1
    26    10    41    1
    27    11    12    1
    28    11    13    1
    29    12    42    1
    30    12    43    1
    31    12    44    1
    32    13    14    1
    33    13    45    1
    34    13    46    1
    35    14    25   ar
    36    14    15   ar
    37    15    16   ar
    38    15    47    1
    39    16    17   ar
    40    16    48    1
    41    17    18    1
    42    17    24   ar
    43    18    19    2
    44    18    20   am
    45    20    21    1
    46    20    49    1
    47    21    23    1
    48    21    22    1
    49    21    50    1
    50    22    23    1
    51    22    51    1
    52    22    52    1
    53    23    53    1
    54    23    54    1
    55    24    25   ar
    56    24    55    1
    57    25    56    1
@<TRIPOS>SUBSTRUCTURE
     1 ZINC000642096826        1 TEMP              0 ****  ****    0 ROOT


##########                                Name:    ZINC000265724350
##########                DOCK_Rotatable_Bonds:                   8
##########                         Heavy_Atoms:                  23
##########                    Molecular_Weight:              345.42
##########                DOCK_Rotatable_Bonds:                   8
##########                       Formal_Charge:          -0.0300002
##########                     HBond_Acceptors:                   9
##########                        HBond_Donors:                   2
##########                         Heavy_Atoms:                  23
##########                          Grid_Score:          -37.987568
##########                     Grid_vdw_energy:          -37.172684
##########                      Grid_es_energy:           -0.814884
##########           Internal_energy_repulsive:            5.974657

@<TRIPOS>MOLECULE
ZINC000265724350
 46 47 1 0 0
SMALL
USER_CHARGES


@<TRIPOS>ATOM
      1 C1         -4.7543    1.8317   51.0598 C.3     1  ZINC000265724350    0.0800
      2 N2         -5.9496    1.3021   51.7211 N.am    1  ZINC000265724350   -1.1100
      3 S3         -7.0700    0.4507   50.8483 S.o2    1  ZINC000265724350    2.7200
      4 O4         -7.6511    1.3713   49.9350 O.2     1  ZINC000265724350   -0.9300
      5 O5         -6.4316   -0.7513   50.4398 O.2     1  ZINC000265724350   -0.9300
      6 C6         -8.3510   -0.0203   51.9627 C.2     1  ZINC000265724350   -0.5600
      7 C7         -8.8426    0.7423   52.9642 C.2     1  ZINC000265724350   -0.0900
      8 C8         -9.8434   -0.0077   53.6015 C.2     1  ZINC000265724350   -0.1400
      9 C9         -9.9125   -1.2049   52.9485 C.2     1  ZINC000265724350   -0.0200
     10 C10       -10.8214   -2.3103   53.2693 C.2     1  ZINC000265724350    0.6000
     11 O11       -10.8972   -3.2711   52.5261 O.2     1  ZINC000265724350   -0.5000
     12 N12       -11.5728   -2.2622   54.3871 N.am    1  ZINC000265724350   -0.7100
     13 C13       -12.4795   -3.3671   54.7084 C.3     1  ZINC000265724350    0.1200
     14 C14       -12.5757   -3.5226   56.2274 C.3     1  ZINC000265724350   -0.1100
     15 H15       -12.9282   -2.5894   56.6666 H       1  ZINC000265724350    0.0800
     16 C16       -13.5570   -4.6473   56.5637 C.3     1  ZINC000265724350   -0.1400
     17 C17       -11.1958   -3.8636   56.7935 C.3     1  ZINC000265724350    0.0600
     18 N18       -10.9820   -3.1208   58.0427 N.3     1  ZINC000265724350   -0.5300
     19 C19       -10.3252   -1.8315   57.7833 C.3     1  ZINC000265724350    0.0100
     20 C20       -10.1760   -1.0664   59.1010 C.3     1  ZINC000265724350    0.0600
     21 O21        -9.4449   -1.8688   60.0321 O.3     1  ZINC000265724350   -0.3900
     22 C22       -10.0564   -3.1317   60.3084 C.3     1  ZINC000265724350    0.0600
     23 C23       -10.2044   -3.9176   59.0030 C.3     1  ZINC000265724350    0.0200
     24 O24        -9.0019   -1.1907   51.9531 O.3     1  ZINC000265724350   -0.1100
     25 H25        -4.1390    2.3587   51.7890 H       1  ZINC000265724350    0.0900
     26 H26        -4.1830    1.0094   50.6290 H       1  ZINC000265724350    0.0600
     27 H27        -5.0515    2.5209   50.2693 H       1  ZINC000265724350    0.0700
     28 H28        -6.0846    1.4504   52.6701 H       1  ZINC000265724350    0.4200
     29 H29        -8.5252    1.7411   53.2251 H       1  ZINC000265724350    0.1800
     30 H30       -10.4424    0.3020   54.4450 H       1  ZINC000265724350    0.1700
     31 H31       -11.5134   -1.4959   54.9788 H       1  ZINC000265724350    0.4100
     32 H32       -13.4683   -3.1559   54.3013 H       1  ZINC000265724350    0.0800
     33 H33       -12.0966   -4.2898   54.2722 H       1  ZINC000265724350    0.0700
     34 H34       -14.5402   -4.4044   56.1604 H       1  ZINC000265724350    0.0500
     35 H35       -13.2045   -5.5805   56.1246 H       1  ZINC000265724350    0.0600
     36 H36       -13.6256   -4.7581   57.6459 H       1  ZINC000265724350    0.0700
     37 H37       -11.1391   -4.9336   56.9929 H       1  ZINC000265724350    0.0800
     38 H38       -10.4282   -3.5874   56.0706 H       1  ZINC000265724350    0.0400
     39 H39        -9.3403   -2.0053   57.3499 H       1  ZINC000265724350    0.0400
     40 H40       -10.9306   -1.2475   57.0900 H       1  ZINC000265724350    0.0900
     41 H41        -9.6385   -0.1351   58.9224 H       1  ZINC000265724350    0.1000
     42 H42       -11.1631   -0.8455   59.5073 H       1  ZINC000265724350    0.0600
     43 H43        -9.4325   -3.6940   61.0030 H       1  ZINC000265724350    0.1000
     44 H44       -11.0400   -2.9709   60.7499 H       1  ZINC000265724350    0.0600
     45 H45       -10.7217   -4.8565   59.1999 H       1  ZINC000265724350    0.0900
     46 H46        -9.2175   -4.1248   58.5890 H       1  ZINC000265724350    0.0400
@<TRIPOS>BOND
     1     1     2    1
     2     1    25    1
     3     1    26    1
     4     1    27    1
     5     2     3   am
     6     2    28    1
     7     3     4    2
     8     3     5    2
     9     3     6    1
    10     6    24    1
    11     6     7    2
    12     7     8    1
    13     7    29    1
    14     8     9    2
    15     8    30    1
    16     9    10    1
    17     9    24    1
    18    10    11    2
    19    10    12   am
    20    12    13    1
    21    12    31    1
    22    13    14    1
    23    13    32    1
    24    13    33    1
    25    14    15    1
    26    14    16    1
    27    14    17    1
    28    16    34    1
    29    16    35    1
    30    16    36    1
    31    17    18    1
    32    17    37    1
    33    17    38    1
    34    18    23    1
    35    18    19    1
    36    19    20    1
    37    19    39    1
    38    19    40    1
    39    20    21    1
    40    20    41    1
    41    20    42    1
    42    21    22    1
    43    22    23    1
    44    22    43    1
    45    22    44    1
    46    23    45    1
    47    23    46    1
@<TRIPOS>SUBSTRUCTURE
     1 ZINC000265724350        1 TEMP              0 ****  ****    0 ROOT


##########                                Name:    ZINC000190927708
##########                DOCK_Rotatable_Bonds:                  10
##########                         Heavy_Atoms:                  26
##########                    Molecular_Weight:             358.437
##########                DOCK_Rotatable_Bonds:                  10
##########                       Formal_Charge:           0.0499998
##########                     HBond_Acceptors:                   6
##########                        HBond_Donors:                   1
##########                         Heavy_Atoms:                  26
##########                          Grid_Score:          -37.929680
##########                     Grid_vdw_energy:          -35.784916
##########                      Grid_es_energy:           -2.144763
##########           Internal_energy_repulsive:           27.446552

@<TRIPOS>MOLECULE
ZINC000190927708
 52 53 1 0 0
SMALL
USER_CHARGES


@<TRIPOS>ATOM
      1 C1        -14.4535   -5.5574   56.9713 C.3     1  ZINC000190927708   -0.1500
      2 C2        -14.0770   -4.2644   56.2451 C.3     1  ZINC000190927708   -0.1500
      3 C3        -12.6838   -4.4119   55.6302 C.3     1  ZINC000190927708    0.1000
      4 N4        -11.9777   -3.1307   55.7077 N.am    1  ZINC000190927708   -0.5900
      5 C5        -11.3449   -2.7777   56.8442 C.2     1  ZINC000190927708    0.5300
      6 O6        -10.7590   -1.7178   56.9079 O.2     1  ZINC000190927708   -0.5300
      7 C7        -11.3653   -3.7002   58.0356 C.3     1  ZINC000190927708   -0.0800
      8 C8        -10.9458   -2.9396   59.2672 C.2     1  ZINC000190927708   -0.1700
      9 C9        -11.7855   -2.0274   59.8163 C.2     1  ZINC000190927708    0.0000
     10 C10       -11.3482   -1.3057   61.0128 C.ar    1  ZINC000190927708   -0.1300
     11 C11       -12.1704   -0.3541   61.6245 C.ar    1  ZINC000190927708   -0.0500
     12 C12       -11.7331    0.3014   62.7408 C.ar    1  ZINC000190927708   -0.1500
     13 C13       -10.4801    0.0315   63.2730 C.ar    1  ZINC000190927708   -0.0600
     14 C14        -9.6527   -0.9020   62.6864 C.ar    1  ZINC000190927708   -0.1600
     15 C15       -10.0765   -1.5822   61.5498 C.ar    1  ZINC000190927708    0.1900
     16 N16        -9.2700   -2.5214   60.9429 N.am    1  ZINC000190927708   -0.6300
     17 C17        -9.6829   -3.1836   59.8479 C.2     1  ZINC000190927708    0.5500
     18 O18        -8.9434   -4.0071   59.3376 O.2     1  ZINC000190927708   -0.5300
     19 C19       -11.9593   -2.2331   54.5500 C.3     1  ZINC000190927708    0.1500
     20 H20       -11.6479   -1.2377   54.8670 H       1  ZINC000190927708    0.1400
     21 C21       -13.3603   -2.1591   53.9399 C.3     1  ZINC000190927708   -0.1300
     22 C22       -13.5172   -0.8398   53.1811 C.3     1  ZINC000190927708   -0.1500
     23 C23       -10.9908   -2.7589   53.5221 C.2     1  ZINC000190927708    0.4500
     24 O24       -10.8809   -3.9496   53.3491 O.2     1  ZINC000190927708   -0.5000
     25 O25       -10.2503   -1.9044   52.7989 O.3     1  ZINC000190927708   -0.3500
     26 C26        -9.9726   -0.6081   53.3912 C.3     1  ZINC000190927708    0.0600
     27 C27        -8.8369    0.0709   52.6232 C.3     1  ZINC000190927708   -0.1500
     28 H28       -13.7275   -5.7559   57.7597 H       1  ZINC000190927708    0.0600
     29 H29       -15.4461   -5.4522   57.4093 H       1  ZINC000190927708    0.0600
     30 H30       -14.4552   -6.3851   56.2621 H       1  ZINC000190927708    0.0600
     31 H31       -14.8030   -4.0659   55.4566 H       1  ZINC000190927708    0.0800
     32 H32       -14.0754   -3.4366   56.9542 H       1  ZINC000190927708    0.0700
     33 H33       -12.1233   -5.1695   56.1779 H       1  ZINC000190927708    0.0900
     34 H34       -12.7772   -4.7127   54.5867 H       1  ZINC000190927708    0.0900
     35 H35       -12.3733   -4.0908   58.1756 H       1  ZINC000190927708    0.1100
     36 H36       -10.6755   -4.5272   57.8668 H       1  ZINC000190927708    0.1200
     37 H37       -12.7552   -1.8372   59.3806 H       1  ZINC000190927708    0.1400
     38 H38       -13.1467   -0.1382   61.2163 H       1  ZINC000190927708    0.1400
     39 H39       -12.3681    1.0366   63.2129 H       1  ZINC000190927708    0.1300
     40 H40       -10.1496    0.5587   64.1559 H       1  ZINC000190927708    0.1300
     41 H41        -8.6794   -1.1049   63.1082 H       1  ZINC000190927708    0.1300
     42 H42        -8.3937   -2.7100   61.3135 H       1  ZINC000190927708    0.4200
     43 H43       -13.5017   -2.9929   53.2522 H       1  ZINC000190927708    0.0900
     44 H44       -14.1056   -2.2126   54.7336 H       1  ZINC000190927708    0.0800
     45 H45       -14.5154   -0.7871   52.7464 H       1  ZINC000190927708    0.0600
     46 H46       -13.3759   -0.0061   53.8688 H       1  ZINC000190927708    0.0600
     47 H47       -12.7720   -0.7864   52.3874 H       1  ZINC000190927708    0.0600
     48 H48       -10.8670    0.0131   53.3416 H       1  ZINC000190927708    0.0700
     49 H49        -9.6792   -0.7399   54.4327 H       1  ZINC000190927708    0.0700
     50 H50        -7.9425   -0.5502   52.6728 H       1  ZINC000190927708    0.0700
     51 H51        -9.1304    0.2027   51.5817 H       1  ZINC000190927708    0.0700
     52 H52        -8.6285    1.0441   53.0679 H       1  ZINC000190927708    0.0800
@<TRIPOS>BOND
     1     1     2    1
     2     1    28    1
     3     1    29    1
     4     1    30    1
     5     2     3    1
     6     2    31    1
     7     2    32    1
     8     3     4    1
     9     3    33    1
    10     3    34    1
    11     4     5   am
    12     4    19    1
    13     5     6    2
    14     5     7    1
    15     7     8    1
    16     7    35    1
    17     7    36    1
    18     8    17    1
    19     8     9    2
    20     9    10    1
    21     9    37    1
    22    10    15   ar
    23    10    11   ar
    24    11    12   ar
    25    11    38    1
    26    12    13   ar
    27    12    39    1
    28    13    14   ar
    29    13    40    1
    30    14    15   ar
    31    14    41    1
    32    15    16    1
    33    16    17   am
    34    16    42    1
    35    17    18    2
    36    19    20    1
    37    19    21    1
    38    19    23    1
    39    21    22    1
    40    21    43    1
    41    21    44    1
    42    22    45    1
    43    22    46    1
    44    22    47    1
    45    23    24    2
    46    23    25    1
    47    25    26    1
    48    26    27    1
    49    26    48    1
    50    26    49    1
    51    27    50    1
    52    27    51    1
    53    27    52    1
@<TRIPOS>SUBSTRUCTURE
     1 ZINC000190927708        1 TEMP              0 ****  ****    0 ROOT


##########                                Name:    ZINC000435005159
##########                DOCK_Rotatable_Bonds:                  12
##########                         Heavy_Atoms:                  30
##########                    Molecular_Weight:             401.508
##########                DOCK_Rotatable_Bonds:                  12
##########                       Formal_Charge:          -0.0399985
##########                     HBond_Acceptors:                   5
##########                        HBond_Donors:                   2
##########                         Heavy_Atoms:                  30
##########                          Grid_Score:          -37.909458
##########                     Grid_vdw_energy:          -36.571369
##########                      Grid_es_energy:           -1.338087
##########           Internal_energy_repulsive:           10.128633

@<TRIPOS>MOLECULE
ZINC000435005159
 57 59 1 0 0
SMALL
USER_CHARGES


@<TRIPOS>ATOM
      1 O1        -14.1006   -5.2072   57.9270 O.2     1  ZINC000435005159   -0.5300
      2 C2        -14.4202   -4.1278   57.4756 C.2     1  ZINC000435005159    0.5200
      3 C3        -15.7588   -3.5309   57.8263 C.3     1  ZINC000435005159   -0.1400
      4 C4        -15.8566   -3.3532   59.3428 C.3     1  ZINC000435005159   -0.1200
      5 C5        -14.9479   -2.2030   59.7811 C.3     1  ZINC000435005159    0.1200
      6 N6        -15.1231   -1.9616   61.2154 N.am    1  ZINC000435005159   -0.7200
      7 C7        -14.9600   -0.7204   61.7147 C.2     1  ZINC000435005159    0.5600
      8 O8        -14.6661    0.1985   60.9752 O.2     1  ZINC000435005159   -0.5300
      9 C9        -15.1386   -0.4764   63.1619 C.ar    1  ZINC000435005159   -0.1900
     10 C10       -15.4518   -1.5304   64.0281 C.ar    1  ZINC000435005159   -0.0200
     11 C11       -15.6081   -1.2490   65.3741 C.ar    1  ZINC000435005159   -0.1800
     12 C12       -15.4514    0.0521   65.8163 C.ar    1  ZINC000435005159    0.1200
     13 N13       -15.1564    1.0262   64.9763 N.ar    1  ZINC000435005159   -0.4900
     14 C14       -14.9921    0.8078   63.6883 C.ar    1  ZINC000435005159    0.1400
     15 N15       -13.5760   -3.4594   56.6650 N.am    1  ZINC000435005159   -0.7300
     16 C16       -12.2747   -4.0397   56.3242 C.3     1  ZINC000435005159    0.1900
     17 H17       -12.3687   -5.1230   56.2473 H       1  ZINC000435005159    0.1000
     18 C18       -11.7987   -3.4730   54.9850 C.3     1  ZINC000435005159   -0.1200
     19 C19       -12.3363   -4.3395   53.8445 C.3     1  ZINC000435005159   -0.0800
     20 C20       -13.2328   -3.5092   52.9624 C.ar    1  ZINC000435005159   -0.0800
     21 C21       -14.6060   -3.6377   53.0562 C.ar    1  ZINC000435005159   -0.1200
     22 C22       -15.4283   -2.8760   52.2472 C.ar    1  ZINC000435005159   -0.1200
     23 C23       -14.8775   -1.9856   51.3446 C.ar    1  ZINC000435005159   -0.1200
     24 C24       -13.5043   -1.8566   51.2514 C.ar    1  ZINC000435005159   -0.1200
     25 C25       -12.6821   -2.6151   52.0635 C.ar    1  ZINC000435005159   -0.1200
     26 C26       -11.2749   -3.6971   57.3985 C.ar    1  ZINC000435005159   -0.1000
     27 C27       -10.6071   -4.7055   58.0678 C.ar    1  ZINC000435005159   -0.1100
     28 C28        -9.6899   -4.3913   59.0532 C.ar    1  ZINC000435005159   -0.1200
     29 C29        -9.4404   -3.0688   59.3691 C.ar    1  ZINC000435005159   -0.1200
     30 C30       -10.1077   -2.0605   58.6990 C.ar    1  ZINC000435005159   -0.1200
     31 C31       -11.0216   -2.3745   57.7106 C.ar    1  ZINC000435005159   -0.1000
     32 H32       -15.8631   -2.5612   57.3394 H       1  ZINC000435005159    0.1000
     33 H33       -16.5532   -4.1954   57.4865 H       1  ZINC000435005159    0.1000
     34 H34       -16.8871   -3.1268   59.6164 H       1  ZINC000435005159    0.0800
     35 H35       -15.5431   -4.2726   59.8373 H       1  ZINC000435005159    0.0800
     36 H36       -13.9088   -2.4642   59.5809 H       1  ZINC000435005159    0.0700
     37 H37       -15.2094   -1.3018   59.2265 H       1  ZINC000435005159    0.0700
     38 H38       -15.3565   -2.6950   61.8058 H       1  ZINC000435005159    0.4000
     39 H39       -15.5689   -2.5374   63.6555 H       1  ZINC000435005159    0.1500
     40 H40       -15.8503   -2.0369   66.0718 H       1  ZINC000435005159    0.1500
     41 H41       -15.5727    0.2746   66.8661 H       1  ZINC000435005159    0.1600
     42 H42       -14.7508    1.6311   63.0323 H       1  ZINC000435005159    0.1600
     43 H43       -13.8301   -2.5944   56.3073 H       1  ZINC000435005159    0.4000
     44 H44       -12.1662   -2.4531   54.8709 H       1  ZINC000435005159    0.0700
     45 H45       -10.7090   -3.4717   54.9578 H       1  ZINC000435005159    0.0800
     46 H46       -11.5031   -4.7240   53.2564 H       1  ZINC000435005159    0.0700
     47 H47       -12.9044   -5.1729   54.2580 H       1  ZINC000435005159    0.0700
     48 H48       -15.0364   -4.3333   53.7614 H       1  ZINC000435005159    0.1200
     49 H49       -16.5011   -2.9769   52.3200 H       1  ZINC000435005159    0.1200
     50 H50       -15.5199   -1.3911   50.7120 H       1  ZINC000435005159    0.1200
     51 H51       -13.0739   -1.1612   50.5460 H       1  ZINC000435005159    0.1200
     52 H52       -11.6093   -2.5142   51.9907 H       1  ZINC000435005159    0.1200
     53 H53       -10.8019   -5.7387   57.8212 H       1  ZINC000435005159    0.1200
     54 H54        -9.1687   -5.1791   59.5768 H       1  ZINC000435005159    0.1200
     55 H55        -8.7244   -2.8234   60.1394 H       1  ZINC000435005159    0.1200
     56 H56        -9.9130   -1.0273   58.9459 H       1  ZINC000435005159    0.1200
     57 H57       -11.5429   -1.5868   57.1871 H       1  ZINC000435005159    0.1200
@<TRIPOS>BOND
     1     1     2    2
     2     2     3    1
     3     2    15   am
     4     3     4    1
     5     3    32    1
     6     3    33    1
     7     4     5    1
     8     4    34    1
     9     4    35    1
    10     5     6    1
    11     5    36    1
    12     5    37    1
    13     6     7   am
    14     6    38    1
    15     7     8    2
    16     7     9    1
    17     9    14   ar
    18     9    10   ar
    19    10    11   ar
    20    10    39    1
    21    11    12   ar
    22    11    40    1
    23    12    13   ar
    24    12    41    1
    25    13    14   ar
    26    14    42    1
    27    15    16    1
    28    15    43    1
    29    16    17    1
    30    16    18    1
    31    16    26    1
    32    18    19    1
    33    18    44    1
    34    18    45    1
    35    19    20    1
    36    19    46    1
    37    19    47    1
    38    20    25   ar
    39    20    21   ar
    40    21    22   ar
    41    21    48    1
    42    22    23   ar
    43    22    49    1
    44    23    24   ar
    45    23    50    1
    46    24    25   ar
    47    24    51    1
    48    25    52    1
    49    26    31   ar
    50    26    27   ar
    51    27    28   ar
    52    27    53    1
    53    28    29   ar
    54    28    54    1
    55    29    30   ar
    56    29    55    1
    57    30    31   ar
    58    30    56    1
    59    31    57    1
@<TRIPOS>SUBSTRUCTURE
     1 ZINC000435005159        1 TEMP              0 ****  ****    0 ROOT


##########                                Name:    ZINC000185598309
##########                DOCK_Rotatable_Bonds:                  14
##########                         Heavy_Atoms:                  25
##########                    Molecular_Weight:             347.457
##########                DOCK_Rotatable_Bonds:                  14
##########                       Formal_Charge:               -0.02
##########                     HBond_Acceptors:                   6
##########                        HBond_Donors:                   4
##########                         Heavy_Atoms:                  25
##########                          Grid_Score:          -37.906910
##########                     Grid_vdw_energy:          -35.673336
##########                      Grid_es_energy:           -2.233574
##########           Internal_energy_repulsive:           19.693960

@<TRIPOS>MOLECULE
ZINC000185598309
 54 54 1 0 0
SMALL
USER_CHARGES


@<TRIPOS>ATOM
      1 C1         -4.7988    2.2213   65.5456 C.3     1  ZINC000185598309   -0.1300
      2 C2         -5.1142    0.8098   65.9688 C.2     1  ZINC000185598309   -0.1600
      3 C3         -6.2870    0.5252   66.4782 C.2     1  ZINC000185598309   -0.1600
      4 C4         -7.3216    1.6089   66.6396 C.3     1  ZINC000185598309   -0.0900
      5 C5         -8.6929    1.0703   66.2271 C.3     1  ZINC000185598309    0.1700
      6 H6         -9.3856    1.9017   66.0964 H       1  ZINC000185598309    0.1000
      7 C7         -9.2208    0.1327   67.3149 C.3     1  ZINC000185598309    0.0600
      8 O8         -8.9493   -1.2217   66.9494 O.3     1  ZINC000185598309   -0.5700
      9 N9         -8.5695    0.3346   64.9662 N.am    1  ZINC000185598309   -0.7300
     10 C10        -9.6387    0.2009   64.1565 C.2     1  ZINC000185598309    0.7000
     11 O11       -10.7052    0.6922   64.4719 O.2     1  ZINC000185598309   -0.5900
     12 N12        -9.5254   -0.4772   62.9973 N.am    1  ZINC000185598309   -0.7400
     13 C13       -10.6881   -0.6239   62.1181 C.3     1  ZINC000185598309    0.1800
     14 C14       -10.3795   -1.6323   61.0414 C.ar    1  ZINC000185598309   -0.0900
     15 C15        -9.4683   -2.6436   61.2832 C.ar    1  ZINC000185598309   -0.1100
     16 C16        -9.1820   -3.5707   60.2976 C.ar    1  ZINC000185598309   -0.1000
     17 C17        -9.8062   -3.4890   59.0685 C.ar    1  ZINC000185598309   -0.1100
     18 C18       -10.7223   -2.4744   58.8226 C.ar    1  ZINC000185598309    0.1400
     19 N19       -11.3569   -2.3891   57.5785 N.am    1  ZINC000185598309   -0.6800
     20 C20       -12.3356   -3.2593   57.2601 C.2     1  ZINC000185598309    0.5200
     21 O21       -12.6663   -4.1164   58.0520 O.2     1  ZINC000185598309   -0.5200
     22 C22       -13.0191   -3.1674   55.9201 C.3     1  ZINC000185598309   -0.1100
     23 H23       -13.5686   -2.2283   55.8561 H       1  ZINC000185598309    0.1000
     24 C24       -13.9908   -4.3386   55.7618 C.3     1  ZINC000185598309   -0.1500
     25 C25       -11.9699   -3.2212   54.8078 C.3     1  ZINC000185598309   -0.1100
     26 C26       -11.6982   -1.8058   54.2942 C.3     1  ZINC000185598309   -0.1600
     27 C27       -11.0115   -1.5483   59.8160 C.ar    1  ZINC000185598309   -0.1300
     28 H28        -3.7845    2.2636   65.1486 H       1  ZINC000185598309    0.0600
     29 H29        -5.5036    2.5358   64.7758 H       1  ZINC000185598309    0.0600
     30 H30        -4.8802    2.8853   66.4061 H       1  ZINC000185598309    0.0600
     31 H31        -4.3731    0.0326   65.8521 H       1  ZINC000185598309    0.1100
     32 H32        -6.5124   -0.4863   66.7828 H       1  ZINC000185598309    0.1100
     33 H33        -7.3547    1.9275   67.6815 H       1  ZINC000185598309    0.0900
     34 H34        -7.0598    2.4580   66.0081 H       1  ZINC000185598309    0.0800
     35 H35        -8.7283    0.3597   68.2604 H       1  ZINC000185598309    0.0500
     36 H36       -10.2965    0.2712   67.4232 H       1  ZINC000185598309    0.0500
     37 H37        -9.3577   -1.4938   66.1162 H       1  ZINC000185598309    0.3800
     38 H38        -7.7183   -0.0563   64.7141 H       1  ZINC000185598309    0.4000
     39 H39        -8.6743   -0.8682   62.7452 H       1  ZINC000185598309    0.4000
     40 H40       -11.5437   -0.9651   62.7009 H       1  ZINC000185598309    0.0700
     41 H41       -10.9207    0.3373   61.6597 H       1  ZINC000185598309    0.0800
     42 H42        -8.9789   -2.7097   62.2436 H       1  ZINC000185598309    0.1300
     43 H43        -8.4693   -4.3591   60.4892 H       1  ZINC000185598309    0.1300
     44 H44        -9.5819   -4.2129   58.2991 H       1  ZINC000185598309    0.1300
     45 H45       -11.0925   -1.7037   56.9451 H       1  ZINC000185598309    0.4100
     46 H46       -14.7382   -4.3003   56.5543 H       1  ZINC000185598309    0.0600
     47 H47       -14.4851   -4.2722   54.7926 H       1  ZINC000185598309    0.0800
     48 H48       -13.4413   -5.2777   55.8258 H       1  ZINC000185598309    0.0600
     49 H49       -11.0470   -3.6492   55.1992 H       1  ZINC000185598309    0.0700
     50 H50       -12.3391   -3.8399   53.9898 H       1  ZINC000185598309    0.0700
     51 H51       -12.6211   -1.3779   53.9028 H       1  ZINC000185598309    0.0600
     52 H52       -11.3290   -1.1871   55.1122 H       1  ZINC000185598309    0.0600
     53 H53       -10.9508   -1.8442   53.5017 H       1  ZINC000185598309    0.0600
     54 H54       -11.7234   -0.7583   59.6279 H       1  ZINC000185598309    0.1300
@<TRIPOS>BOND
     1     1     2    1
     2     1    28    1
     3     1    29    1
     4     1    30    1
     5     2     3    2
     6     2    31    1
     7     3     4    1
     8     3    32    1
     9     4     5    1
    10     4    33    1
    11     4    34    1
    12     5     6    1
    13     5     7    1
    14     5     9    1
    15     7     8    1
    16     7    35    1
    17     7    36    1
    18     8    37    1
    19     9    10   am
    20     9    38    1
    21    10    11    2
    22    10    12   am
    23    12    13    1
    24    12    39    1
    25    13    14    1
    26    13    40    1
    27    13    41    1
    28    14    27   ar
    29    14    15   ar
    30    15    16   ar
    31    15    42    1
    32    16    17   ar
    33    16    43    1
    34    17    18   ar
    35    17    44    1
    36    18    19    1
    37    18    27   ar
    38    19    20   am
    39    19    45    1
    40    20    21    2
    41    20    22    1
    42    22    23    1
    43    22    24    1
    44    22    25    1
    45    24    46    1
    46    24    47    1
    47    24    48    1
    48    25    26    1
    49    25    49    1
    50    25    50    1
    51    26    51    1
    52    26    52    1
    53    26    53    1
    54    27    54    1
@<TRIPOS>SUBSTRUCTURE
     1 ZINC000185598309        1 TEMP              0 ****  ****    0 ROOT


##########                                Name:    ZINC001207290212
##########                DOCK_Rotatable_Bonds:                   8
##########                         Heavy_Atoms:                  23
##########                    Molecular_Weight:             344.435
##########                DOCK_Rotatable_Bonds:                   8
##########                       Formal_Charge:               -0.03
##########                     HBond_Acceptors:                   9
##########                        HBond_Donors:                   2
##########                         Heavy_Atoms:                  23
##########                          Grid_Score:          -37.823551
##########                     Grid_vdw_energy:          -37.629349
##########                      Grid_es_energy:           -0.194202
##########           Internal_energy_repulsive:            6.321856

@<TRIPOS>MOLECULE
ZINC001207290212
 47 48 1 0 0
SMALL
USER_CHARGES


@<TRIPOS>ATOM
      1 C1        -11.3735    0.0039   62.4696 C.3     1  ZINC001207290212   -0.1500
      2 C2        -10.4595    0.1613   61.2527 C.3     1  ZINC001207290212   -0.6300
      3 S3         -9.6876   -1.4339   60.8658 S.o2    1  ZINC001207290212    2.6100
      4 O4         -8.9799   -1.3602   59.6358 O.2     1  ZINC001207290212   -0.9500
      5 O5         -9.0844   -1.9905   62.0259 O.2     1  ZINC001207290212   -0.9500
      6 N6        -10.9614   -2.4421   60.5443 N.am    1  ZINC001207290212   -1.1100
      7 C7        -11.8829   -2.1317   59.4485 C.3     1  ZINC001207290212    0.0900
      8 C8        -11.6026   -3.0443   58.2825 C.2     1  ZINC001207290212    0.5100
      9 O9        -10.5287   -3.6008   58.1925 O.2     1  ZINC001207290212   -0.5300
     10 N10       -12.5452   -3.2422   57.3398 N.am    1  ZINC001207290212   -0.7200
     11 C11       -12.2734   -4.1308   56.2073 C.3     1  ZINC001207290212    0.1400
     12 H12       -11.7014   -4.9983   56.5366 H       1  ZINC001207290212    0.1000
     13 C13       -11.5091   -3.3738   55.1053 C.3     1  ZINC001207290212    0.0200
     14 N14       -12.3713   -3.3701   53.9036 N.3     1  ZINC001207290212   -0.5100
     15 C15       -11.5657   -3.4468   52.6776 C.3     1  ZINC001207290212    0.1300
     16 C16       -10.8568   -2.1350   52.4594 C.2     1  ZINC001207290212    0.0000
     17 C17       -11.4005   -0.9118   52.5719 C.2     1  ZINC001207290212   -0.0700
     18 O18       -10.4297   -0.0193   52.2954 O.3     1  ZINC001207290212   -0.2000
     19 C19        -9.3118   -0.7041   52.0192 C.2     1  ZINC001207290212    0.1900
     20 C20        -7.9798   -0.1002   51.6556 C.3     1  ZINC001207290212   -0.0600
     21 N21        -9.5644   -1.9777   52.1229 N.2     1  ZINC001207290212   -0.4700
     22 C22       -13.2546   -4.5570   54.0353 C.3     1  ZINC001207290212    0.0400
     23 C23       -13.5975   -4.5799   55.5478 C.3     1  ZINC001207290212   -0.1000
     24 H24       -14.3978   -3.8748   55.7726 H       1  ZINC001207290212    0.0900
     25 C25       -13.9813   -5.9920   55.9945 C.3     1  ZINC001207290212   -0.1400
     26 H26       -12.1482   -0.7306   62.2495 H       1  ZINC001207290212    0.0700
     27 H27       -10.7862   -0.3322   63.3240 H       1  ZINC001207290212    0.0700
     28 H28       -11.8373    0.9625   62.7021 H       1  ZINC001207290212    0.0800
     29 H29       -11.0469    0.4975   60.3982 H       1  ZINC001207290212    0.1300
     30 H30        -9.6849    0.8959   61.4727 H       1  ZINC001207290212    0.1300
     31 H31       -11.0974   -3.2383   61.0815 H       1  ZINC001207290212    0.4300
     32 H32       -12.9094   -2.2768   59.7850 H       1  ZINC001207290212    0.1000
     33 H33       -11.7446   -1.0953   59.1402 H       1  ZINC001207290212    0.1100
     34 H34       -13.4036   -2.7961   57.4112 H       1  ZINC001207290212    0.4100
     35 H35       -11.3136   -2.3502   55.4252 H       1  ZINC001207290212    0.0800
     36 H36       -10.5705   -3.8832   54.8873 H       1  ZINC001207290212    0.0500
     37 H37       -10.8303   -4.2453   52.7754 H       1  ZINC001207290212    0.0600
     38 H38       -12.2163   -3.6540   51.8278 H       1  ZINC001207290212    0.1000
     39 H39       -12.4237   -0.6862   52.8341 H       1  ZINC001207290212    0.2100
     40 H40        -8.0628    0.9866   51.6506 H       1  ZINC001207290212    0.0900
     41 H41        -7.2312   -0.4039   52.3875 H       1  ZINC001207290212    0.1000
     42 H42        -7.6818   -0.4466   50.6660 H       1  ZINC001207290212    0.1000
     43 H43       -14.1575   -4.4327   53.4376 H       1  ZINC001207290212    0.0900
     44 H44       -12.7241   -5.4650   53.7486 H       1  ZINC001207290212    0.0500
     45 H45       -13.1571   -6.6750   55.7886 H       1  ZINC001207290212    0.0600
     46 H46       -14.1929   -5.9899   57.0638 H       1  ZINC001207290212    0.0600
     47 H47       -14.8675   -6.3172   55.4495 H       1  ZINC001207290212    0.0600
@<TRIPOS>BOND
     1     1     2    1
     2     1    26    1
     3     1    27    1
     4     1    28    1
     5     2     3    1
     6     2    29    1
     7     2    30    1
     8     3     4    2
     9     3     5    2
    10     3     6   am
    11     6     7    1
    12     6    31    1
    13     7     8    1
    14     7    32    1
    15     7    33    1
    16     8     9    2
    17     8    10   am
    18    10    11    1
    19    10    34    1
    20    11    12    1
    21    11    23    1
    22    11    13    1
    23    13    14    1
    24    13    35    1
    25    13    36    1
    26    14    15    1
    27    14    22    1
    28    15    16    1
    29    15    37    1
    30    15    38    1
    31    16    21    1
    32    16    17    2
    33    17    18    1
    34    17    39    1
    35    18    19    1
    36    19    20    1
    37    19    21    2
    38    20    40    1
    39    20    41    1
    40    20    42    1
    41    22    23    1
    42    22    43    1
    43    22    44    1
    44    23    24    1
    45    23    25    1
    46    25    45    1
    47    25    46    1
    48    25    47    1
@<TRIPOS>SUBSTRUCTURE
     1 ZINC001207290212        1 TEMP              0 ****  ****    0 ROOT


##########                                Name:    ZINC000504860563
##########                DOCK_Rotatable_Bonds:                   6
##########                         Heavy_Atoms:                  25
##########                    Molecular_Weight:             370.786
##########                DOCK_Rotatable_Bonds:                   6
##########                       Formal_Charge:                0.01
##########                     HBond_Acceptors:                   9
##########                        HBond_Donors:                   0
##########                         Heavy_Atoms:                  25
##########                          Grid_Score:          -37.808075
##########                     Grid_vdw_energy:          -36.815811
##########                      Grid_es_energy:           -0.992265
##########           Internal_energy_repulsive:           20.144794

@<TRIPOS>MOLECULE
ZINC000504860563
 42 44 1 0 0
SMALL
USER_CHARGES


@<TRIPOS>ATOM
      1 O1        -11.0517   -5.7886   57.9125 O.2     1  ZINC000504860563   -0.5100
      2 C2        -11.1762   -4.6193   57.6047 C.2     1  ZINC000504860563    0.5700
      3 C3        -12.1586   -4.2275   56.5717 C.ar    1  ZINC000504860563    0.0500
      4 N4        -11.7405   -3.8992   55.3544 N.ar    1  ZINC000504860563   -0.4100
      5 C5        -12.5806   -3.5457   54.4079 C.ar    1  ZINC000504860563    0.0600
      6 C6        -13.9470   -3.5008   54.6435 C.ar    1  ZINC000504860563   -0.1000
      7 C7        -14.4325   -3.8337   55.8954 C.ar    1  ZINC000504860563   -0.1700
      8 C8        -13.5231   -4.2104   56.8811 C.ar    1  ZINC000504860563    0.1400
      9 O9        -13.9524   -4.5457   58.1234 O.3     1  ZINC000504860563   -0.2600
     10 C10       -15.3415   -4.3594   58.4019 C.3     1  ZINC000504860563   -0.0100
     11 C11       -15.6398   -2.8643   58.5308 C.3     1  ZINC000504860563    0.2800
     12 F12       -17.0065   -2.6801   58.7668 F       1  ZINC000504860563   -0.1900
     13 F13       -14.9067   -2.3327   59.5972 F       1  ZINC000504860563   -0.1900
     14 N14       -10.4227   -3.6793   58.2092 N.am    1  ZINC000504860563   -0.6000
     15 C15       -10.5704   -2.2607   57.8565 C.3     1  ZINC000504860563    0.0800
     16 C16       -10.8243   -1.4583   59.1364 C.3     1  ZINC000504860563   -0.1500
     17 C17        -9.7065   -1.7428   60.1423 C.3     1  ZINC000504860563    0.1600
     18 N18        -9.9283   -0.9517   61.3551 N.pl3   1  ZINC000504860563   -0.3600
     19 C19        -9.2890   -1.1088   62.5342 C.2     1  ZINC000504860563    0.0700
     20 C20        -9.7787   -0.1860   63.3950 C.2     1  ZINC000504860563   -0.1900
     21 Cl21       -9.2880    0.0333   65.0457 Cl      1  ZINC000504860563   -0.0400
     22 C22       -10.7503    0.5603   62.7188 C.2     1  ZINC000504860563    0.0600
     23 N23       -10.8368    0.1055   61.4949 N.2     1  ZINC000504860563   -0.2800
     24 C24        -9.7045   -3.2314   60.4977 C.3     1  ZINC000504860563   -0.1400
     25 C25        -9.4423   -4.0532   59.2376 C.3     1  ZINC000504860563    0.1200
     26 H26       -12.2012   -3.2856   53.4308 H       1  ZINC000504860563    0.1700
     27 H27       -14.6259   -3.2080   53.8563 H       1  ZINC000504860563    0.1500
     28 H28       -15.4921   -3.8061   56.1025 H       1  ZINC000504860563    0.1500
     29 H29       -15.9346   -4.7794   57.5894 H       1  ZINC000504860563    0.1000
     30 H30       -15.5958   -4.8624   59.3349 H       1  ZINC000504860563    0.1000
     31 H31       -15.3588   -2.3569   57.6080 H       1  ZINC000504860563    0.1300
     32 H32        -9.6576   -1.9062   57.3779 H       1  ZINC000504860563    0.0700
     33 H33       -11.4131   -2.1392   57.1758 H       1  ZINC000504860563    0.1600
     34 H34       -10.8401   -0.3940   58.9015 H       1  ZINC000504860563    0.0900
     35 H35       -11.7827   -1.7510   59.5653 H       1  ZINC000504860563    0.0700
     36 H36        -8.7459   -1.4732   59.7034 H       1  ZINC000504860563    0.1100
     37 H37        -8.5245   -1.8401   62.7516 H       1  ZINC000504860563    0.1800
     38 H38       -11.3267    1.3736   63.1342 H       1  ZINC000504860563    0.1900
     39 H39        -8.9233   -3.4290   61.2317 H       1  ZINC000504860563    0.0900
     40 H40       -10.6735   -3.5073   60.9137 H       1  ZINC000504860563    0.0800
     41 H41        -9.5381   -5.1145   59.4669 H       1  ZINC000504860563    0.1000
     42 H42        -8.4376   -3.8462   58.8687 H       1  ZINC000504860563    0.0800
@<TRIPOS>BOND
     1     1     2    2
     2     2     3    1
     3     2    14   am
     4     3     8   ar
     5     3     4   ar
     6     4     5   ar
     7     5     6   ar
     8     5    26    1
     9     6     7   ar
    10     6    27    1
    11     7     8   ar
    12     7    28    1
    13     8     9    1
    14     9    10    1
    15    10    11    1
    16    10    29    1
    17    10    30    1
    18    11    12    1
    19    11    13    1
    20    11    31    1
    21    14    25    1
    22    14    15    1
    23    15    16    1
    24    15    32    1
    25    15    33    1
    26    16    17    1
    27    16    34    1
    28    16    35    1
    29    17    18    1
    30    17    24    1
    31    17    36    1
    32    18    23    1
    33    18    19    1
    34    19    20    2
    35    19    37    1
    36    20    21    1
    37    20    22    1
    38    22    23    2
    39    22    38    1
    40    24    25    1
    41    24    39    1
    42    24    40    1
    43    25    41    1
    44    25    42    1
@<TRIPOS>SUBSTRUCTURE
     1 ZINC000504860563        1 TEMP              0 ****  ****    0 ROOT


##########                                Name:    ZINC000824084043
##########                DOCK_Rotatable_Bonds:                  11
##########                         Heavy_Atoms:                  27
##########                    Molecular_Weight:             382.547
##########                DOCK_Rotatable_Bonds:                  11
##########                       Formal_Charge:        -6.85453e-07
##########                     HBond_Acceptors:                   7
##########                        HBond_Donors:                   3
##########                         Heavy_Atoms:                  27
##########                          Grid_Score:          -37.795753
##########                     Grid_vdw_energy:          -34.250809
##########                      Grid_es_energy:           -3.544944
##########           Internal_energy_repulsive:           21.736719

@<TRIPOS>MOLECULE
ZINC000824084043
 65 66 1 0 0
SMALL
USER_CHARGES


@<TRIPOS>ATOM
      1 C1        -13.4718   -1.3927   54.6018 C.3     1  ZINC000824084043   -0.1400
      2 C2        -14.4729   -2.5490   54.6408 C.3     1  ZINC000824084043   -0.1000
      3 C3        -15.2898   -2.5602   53.3472 C.3     1  ZINC000824084043   -0.1300
      4 C4        -13.7181   -3.8727   54.7788 C.3     1  ZINC000824084043    0.1700
      5 H5        -12.8860   -3.7460   55.4713 H       1  ZINC000824084043    0.0700
      6 C6        -14.6669   -4.9476   55.3127 C.3     1  ZINC000824084043   -0.1400
      7 C7        -14.2089   -5.3861   56.7051 C.3     1  ZINC000824084043    0.1300
      8 N8        -14.4034   -4.2854   57.6523 N.am    1  ZINC000824084043   -0.6200
      9 C9        -15.7518   -3.9448   58.1126 C.3     1  ZINC000824084043    0.0800
     10 C10       -13.3418   -3.5862   58.1000 C.2     1  ZINC000824084043    0.7000
     11 O11       -12.2228   -3.8678   57.7169 O.2     1  ZINC000824084043   -0.5800
     12 N12       -13.5205   -2.5747   58.9726 N.am    1  ZINC000824084043   -0.7500
     13 C13       -12.3664   -1.8157   59.4608 C.3     1  ZINC000824084043    0.1600
     14 C14       -12.8416   -0.4858   60.0530 C.3     1  ZINC000824084043   -0.1600
     15 C15       -11.6412    0.2661   60.6322 C.3     1  ZINC000824084043   -0.0100
     16 N16       -11.0133   -0.5430   61.6836 N.4     1  ZINC000824084043   -0.3800
     17 H17       -11.6976   -0.7615   62.3922 H       1  ZINC000824084043    0.4200
     18 C18        -9.9091    0.2140   62.2884 C.3     1  ZINC000824084043    0.0000
     19 C19       -10.2679    0.5741   63.7315 C.3     1  ZINC000824084043   -0.1200
     20 C20        -9.0058    0.5386   64.6287 C.3     1  ZINC000824084043   -0.1400
     21 C21        -9.3954    1.4698   65.8035 C.3     1  ZINC000824084043   -0.1200
     22 C22       -10.1983    2.6054   65.1360 C.3     1  ZINC000824084043   -0.1300
     23 C23       -10.7530    2.0359   63.8185 C.3     1  ZINC000824084043   -0.1100
     24 C24       -10.4915   -1.7887   61.1088 C.3     1  ZINC000824084043    0.0000
     25 C25       -11.6476   -2.6197   60.5480 C.3     1  ZINC000824084043   -0.1600
     26 N26       -13.2050   -4.2811   53.4687 N.am    1  ZINC000824084043   -0.7800
     27 C27       -11.8930   -4.1526   53.1888 C.2     1  ZINC000824084043    0.6600
     28 O28       -11.1308   -3.6936   54.0280 O.co2   1  ZINC000824084043   -0.7200
     29 O29       -11.4645   -4.4950   52.0956 O.co2   1  ZINC000824084043   -0.7300
     30 H30       -14.0095   -0.4497   54.5036 H       1  ZINC000824084043    0.0500
     31 H31       -12.8897   -1.3848   55.5234 H       1  ZINC000824084043    0.0500
     32 H32       -12.8028   -1.5199   53.7508 H       1  ZINC000824084043    0.0500
     33 H33       -15.1419   -2.4219   55.4920 H       1  ZINC000824084043    0.0500
     34 H34       -14.6209   -2.6874   52.4962 H       1  ZINC000824084043    0.0600
     35 H35       -16.0031   -3.3839   53.3750 H       1  ZINC000824084043    0.0700
     36 H36       -15.8276   -1.6172   53.2490 H       1  ZINC000824084043    0.0300
     37 H37       -15.6772   -4.5431   55.3731 H       1  ZINC000824084043    0.0700
     38 H38       -14.6587   -5.8057   54.6406 H       1  ZINC000824084043    0.0600
     39 H39       -14.7937   -6.2484   57.0252 H       1  ZINC000824084043    0.0900
     40 H40       -13.1530   -5.6549   56.6724 H       1  ZINC000824084043    0.0900
     41 H41       -15.9845   -4.5170   59.0107 H       1  ZINC000824084043    0.0600
     42 H42       -15.8007   -2.8795   58.3377 H       1  ZINC000824084043    0.0600
     43 H43       -16.4736   -4.1847   57.3318 H       1  ZINC000824084043    0.0800
     44 H44       -14.4134   -2.3491   59.2774 H       1  ZINC000824084043    0.4000
     45 H45       -11.6807   -1.6242   58.6354 H       1  ZINC000824084043    0.1100
     46 H46       -13.3052    0.1158   59.2713 H       1  ZINC000824084043    0.1200
     47 H47       -13.5667   -0.6780   60.8438 H       1  ZINC000824084043    0.0900
     48 H48       -10.9169    0.4579   59.8406 H       1  ZINC000824084043    0.1300
     49 H49       -11.9759    1.2136   61.0546 H       1  ZINC000824084043    0.1300
     50 H50        -9.0043   -0.3936   62.2796 H       1  ZINC000824084043    0.1300
     51 H51        -9.7392    1.1270   61.7176 H       1  ZINC000824084043    0.1300
     52 H52       -11.0301   -0.1044   64.1148 H       1  ZINC000824084043    0.1000
     53 H53        -8.8136   -0.4733   64.9852 H       1  ZINC000824084043    0.0700
     54 H54        -8.1409    0.9320   64.0945 H       1  ZINC000824084043    0.0800
     55 H55       -10.0157    0.9362   66.5237 H       1  ZINC000824084043    0.0700
     56 H56        -8.5032    1.8669   66.2876 H       1  ZINC000824084043    0.0800
     57 H57       -11.0185    2.9137   65.7842 H       1  ZINC000824084043    0.0700
     58 H58        -9.5452    3.4535   64.9305 H       1  ZINC000824084043    0.0700
     59 H59       -10.3691    2.6076   62.9737 H       1  ZINC000824084043    0.0700
     60 H60       -11.8424    2.0678   63.8274 H       1  ZINC000824084043    0.0800
     61 H61        -9.7916   -1.5531   60.3071 H       1  ZINC000824084043    0.1300
     62 H62        -9.9774   -2.3582   61.8830 H       1  ZINC000824084043    0.1300
     63 H63       -12.3479   -2.8561   61.3489 H       1  ZINC000824084043    0.0900
     64 H64       -11.2578   -3.5433   60.1200 H       1  ZINC000824084043    0.1200
     65 H65       -13.8098   -4.6439   52.8027 H       1  ZINC000824084043    0.3600
@<TRIPOS>BOND
     1     1     2    1
     2     1    30    1
     3     1    31    1
     4     1    32    1
     5     2     3    1
     6     2     4    1
     7     2    33    1
     8     3    34    1
     9     3    35    1
    10     3    36    1
    11     4     5    1
    12     4     6    1
    13     4    26    1
    14     6     7    1
    15     6    37    1
    16     6    38    1
    17     7     8    1
    18     7    39    1
    19     7    40    1
    20     8     9    1
    21     8    10   am
    22     9    41    1
    23     9    42    1
    24     9    43    1
    25    10    11    2
    26    10    12   am
    27    12    13    1
    28    12    44    1
    29    13    25    1
    30    13    14    1
    31    13    45    1
    32    14    15    1
    33    14    46    1
    34    14    47    1
    35    15    16    1
    36    15    48    1
    37    15    49    1
    38    16    17    1
    39    16    18    1
    40    16    24    1
    41    18    19    1
    42    18    50    1
    43    18    51    1
    44    19    23    1
    45    19    20    1
    46    19    52    1
    47    20    21    1
    48    20    53    1
    49    20    54    1
    50    21    22    1
    51    21    55    1
    52    21    56    1
    53    22    23    1
    54    22    57    1
    55    22    58    1
    56    23    59    1
    57    23    60    1
    58    24    25    1
    59    24    61    1
    60    24    62    1
    61    25    63    1
    62    25    64    1
    63    26    27   am
    64    26    65    1
    65    27    28   ar
    66    27    29   ar
@<TRIPOS>SUBSTRUCTURE
     1 ZINC000824084043        1 TEMP              0 ****  ****    0 ROOT


##########                                Name:    ZINC000482187991
##########                DOCK_Rotatable_Bonds:                  11
##########                         Heavy_Atoms:                  29
##########                    Molecular_Weight:             407.414
##########                DOCK_Rotatable_Bonds:                  11
##########                       Formal_Charge:           0.0299996
##########                     HBond_Acceptors:                   8
##########                        HBond_Donors:                   1
##########                         Heavy_Atoms:                  29
##########                          Grid_Score:          -37.779140
##########                     Grid_vdw_energy:          -37.854389
##########                      Grid_es_energy:            0.075249
##########           Internal_energy_repulsive:           10.566139

@<TRIPOS>MOLECULE
ZINC000482187991
 52 53 1 0 0
SMALL
USER_CHARGES


@<TRIPOS>ATOM
      1 C1        -11.9158   -0.0485   55.4676 C.3     1  ZINC000482187991    0.0200
      2 O2        -11.1051   -1.1879   55.1728 O.3     1  ZINC000482187991   -0.3000
      3 C3        -11.3593   -2.3247   55.8748 C.ar    1  ZINC000482187991    0.1400
      4 C4        -10.7717   -2.5189   57.1095 C.ar    1  ZINC000482187991   -0.1700
      5 C5        -11.0343   -3.6893   57.8315 C.ar    1  ZINC000482187991   -0.1000
      6 C6        -10.4117   -3.8994   59.1449 C.2     1  ZINC000482187991    0.4000
      7 O7         -9.6633   -4.8383   59.3180 O.2     1  ZINC000482187991   -0.4500
      8 C8        -10.7024   -2.9487   60.2774 C.3     1  ZINC000482187991   -0.1500
      9 C9         -9.4667   -2.0893   60.5518 C.3     1  ZINC000482187991   -0.1300
     10 C10        -9.8879   -0.7971   61.2029 C.2     1  ZINC000482187991    0.5200
     11 O11       -10.1851    0.1584   60.5177 O.2     1  ZINC000482187991   -0.5200
     12 N12        -9.9341   -0.7033   62.5465 N.am    1  ZINC000482187991   -0.7200
     13 C13       -10.3419    0.5535   63.1795 C.3     1  ZINC000482187991    0.1500
     14 H14       -10.1134    1.3861   62.5142 H       1  ZINC000482187991    0.1300
     15 C15        -9.5954    0.7277   64.4770 C.ar    1  ZINC000482187991   -0.1100
     16 C16        -9.3705    1.9954   64.9802 C.ar    1  ZINC000482187991   -0.1000
     17 C17        -8.6857    2.1552   66.1702 C.ar    1  ZINC000482187991   -0.1200
     18 C18        -8.2262    1.0472   66.8574 C.ar    1  ZINC000482187991   -0.1100
     19 C19        -8.4518   -0.2205   66.3546 C.ar    1  ZINC000482187991   -0.1200
     20 C20        -9.1403   -0.3805   65.1667 C.ar    1  ZINC000482187991   -0.1000
     21 C21       -11.8462    0.5202   63.4569 C.3     1  ZINC000482187991    0.2500
     22 F22       -12.2270    1.7003   64.1046 F       1  ZINC000482187991   -0.1900
     23 F23       -12.5410    0.4065   62.2481 F       1  ZINC000482187991   -0.2000
     24 C24       -11.8925   -4.6588   57.2986 C.ar    1  ZINC000482187991   -0.1900
     25 C25       -12.4766   -4.4575   56.0632 C.ar    1  ZINC000482187991    0.1400
     26 O26       -13.3106   -5.3984   55.5449 O.3     1  ZINC000482187991   -0.3000
     27 C27       -14.5082   -5.6759   56.2735 C.3     1  ZINC000482187991    0.0200
     28 C28       -12.2169   -3.2892   55.3500 C.ar    1  ZINC000482187991    0.0600
     29 O29       -12.7935   -3.0945   54.1356 O.3     1  ZINC000482187991   -0.3100
     30 C30       -12.0887   -3.5908   52.9959 C.3     1  ZINC000482187991    0.0400
     31 H31       -11.6094    0.7878   54.8393 H       1  ZINC000482187991    0.1100
     32 H32       -12.9614   -0.2860   55.2717 H       1  ZINC000482187991    0.0600
     33 H33       -11.7949    0.2218   56.5166 H       1  ZINC000482187991    0.0600
     34 H34       -10.1100   -1.7690   57.5173 H       1  ZINC000482187991    0.1500
     35 H35       -11.5394   -2.3054   60.0061 H       1  ZINC000482187991    0.1100
     36 H36       -10.9560   -3.5166   61.1725 H       1  ZINC000482187991    0.1100
     37 H37        -8.7902   -2.6272   61.2160 H       1  ZINC000482187991    0.1000
     38 H38        -8.9580   -1.8737   59.6122 H       1  ZINC000482187991    0.1000
     39 H39        -9.6975   -1.4679   63.0946 H       1  ZINC000482187991    0.4100
     40 H40        -9.7296    2.8610   64.4433 H       1  ZINC000482187991    0.1200
     41 H41        -8.5094    3.1456   66.5631 H       1  ZINC000482187991    0.1300
     42 H42        -7.6905    1.1720   67.7869 H       1  ZINC000482187991    0.1300
     43 H43        -8.0924   -1.0861   66.8913 H       1  ZINC000482187991    0.1300
     44 H44        -9.3166   -1.3710   64.7740 H       1  ZINC000482187991    0.1300
     45 H45       -12.0797   -0.3344   64.0920 H       1  ZINC000482187991    0.1200
     46 H46       -12.0972   -5.5630   57.8526 H       1  ZINC000482187991    0.1500
     47 H47       -14.2522   -6.0296   57.2723 H       1  ZINC000482187991    0.0600
     48 H48       -15.1047   -4.7669   56.3519 H       1  ZINC000482187991    0.0600
     49 H49       -15.0812   -6.4427   55.7523 H       1  ZINC000482187991    0.1100
     50 H50       -11.1113   -3.1120   52.9362 H       1  ZINC000482187991    0.0500
     51 H51       -11.9598   -4.6692   53.0895 H       1  ZINC000482187991    0.0500
     52 H52       -12.6572   -3.3699   52.0925 H       1  ZINC000482187991    0.1000
@<TRIPOS>BOND
     1     1     2    1
     2     1    31    1
     3     1    32    1
     4     1    33    1
     5     2     3    1
     6     3    28   ar
     7     3     4   ar
     8     4     5   ar
     9     4    34    1
    10     5     6    1
    11     5    24   ar
    12     6     7    2
    13     6     8    1
    14     8     9    1
    15     8    35    1
    16     8    36    1
    17     9    10    1
    18     9    37    1
    19     9    38    1
    20    10    11    2
    21    10    12   am
    22    12    13    1
    23    12    39    1
    24    13    14    1
    25    13    15    1
    26    13    21    1
    27    15    20   ar
    28    15    16   ar
    29    16    17   ar
    30    16    40    1
    31    17    18   ar
    32    17    41    1
    33    18    19   ar
    34    18    42    1
    35    19    20   ar
    36    19    43    1
    37    20    44    1
    38    21    22    1
    39    21    23    1
    40    21    45    1
    41    24    25   ar
    42    24    46    1
    43    25    26    1
    44    25    28   ar
    45    26    27    1
    46    27    47    1
    47    27    48    1
    48    27    49    1
    49    28    29    1
    50    29    30    1
    51    30    50    1
    52    30    51    1
    53    30    52    1
@<TRIPOS>SUBSTRUCTURE
     1 ZINC000482187991        1 TEMP              0 ****  ****    0 ROOT


##########                                Name:    ZINC000058043838
##########                DOCK_Rotatable_Bonds:                   8
##########                         Heavy_Atoms:                  29
##########                    Molecular_Weight:             412.469
##########                DOCK_Rotatable_Bonds:                   8
##########                       Formal_Charge:           0.0200001
##########                     HBond_Acceptors:                   9
##########                        HBond_Donors:                   0
##########                         Heavy_Atoms:                  29
##########                          Grid_Score:          -37.767506
##########                     Grid_vdw_energy:          -37.755623
##########                      Grid_es_energy:           -0.011882
##########           Internal_energy_repulsive:           13.471180

@<TRIPOS>MOLECULE
ZINC000058043838
 49 51 1 0 0
SMALL
USER_CHARGES


@<TRIPOS>ATOM
      1 C1        -11.0954   -2.1737   52.0215 C.3     1  ZINC000058043838    0.0300
      2 O2        -10.4299   -3.1384   52.8392 O.3     1  ZINC000058043838   -0.3800
      3 C3        -11.2913   -3.8164   53.7560 C.3     1  ZINC000058043838    0.0300
      4 C4        -11.8090   -2.8237   54.7987 C.3     1  ZINC000058043838    0.1000
      5 N5        -12.4850   -3.5533   55.8743 N.am    1  ZINC000058043838   -0.5200
      6 C6        -13.7614   -3.9561   55.7165 C.2     1  ZINC000058043838    0.5100
      7 O7        -14.3508   -3.7132   54.6847 O.2     1  ZINC000058043838   -0.4500
      8 C8        -14.4565   -4.7081   56.8222 C.3     1  ZINC000058043838   -0.0900
      9 C9        -15.2760   -3.7477   57.6449 C.ar    1  ZINC000058043838   -0.1400
     10 C10       -16.4495   -3.2125   57.1368 C.ar    1  ZINC000058043838   -0.0500
     11 C11       -17.1714   -2.3329   57.9296 C.ar    1  ZINC000058043838   -0.1700
     12 C12       -16.7004   -2.0216   59.1908 C.ar    1  ZINC000058043838    0.1300
     13 C13       -17.4769   -1.0674   60.0612 C.3     1  ZINC000058043838   -0.1100
     14 N14       -15.5793   -2.5500   59.6418 N.ar    1  ZINC000058043838   -0.4800
     15 C15       -14.8700   -3.3935   58.9179 C.ar    1  ZINC000058043838    0.1200
     16 C16       -11.8104   -3.8299   57.0571 C.2     1  ZINC000058043838    0.3100
     17 N17       -11.6406   -2.9963   58.0355 N.2     1  ZINC000058043838   -0.4700
     18 C18       -10.9693   -3.4355   59.0909 C.2     1  ZINC000058043838    0.1100
     19 C19       -10.7076   -2.5820   60.2754 C.ar    1  ZINC000058043838    0.0400
     20 C20        -9.5000   -2.6909   60.9630 C.ar    1  ZINC000058043838   -0.0800
     21 C21        -9.2619   -1.8939   62.0641 C.ar    1  ZINC000058043838   -0.0500
     22 C22       -10.2188   -0.9883   62.4858 C.ar    1  ZINC000058043838   -0.0400
     23 N23        -9.9573   -0.1360   63.6677 N.pl3   1  ZINC000058043838    0.0300
     24 O24        -8.9015   -0.2330   64.2668 O.2     1  ZINC000058043838   -0.1600
     25 O25       -10.7983    0.6621   64.0409 O.2     1  ZINC000058043838   -0.1600
     26 C26       -11.4188   -0.8756   61.8069 C.ar    1  ZINC000058043838   -0.0500
     27 C27       -11.6660   -1.6641   60.7016 C.ar    1  ZINC000058043838   -0.1100
     28 C28       -10.5420   -4.7086   59.0134 C.2     1  ZINC000058043838   -0.2600
     29 S29       -11.0589   -5.3698   57.4640 S.3     1  ZINC000058043838    0.1500
     30 H30       -11.8676   -2.6679   51.4319 H       1  ZINC000058043838    0.0500
     31 H31       -11.5527   -1.4138   52.6551 H       1  ZINC000058043838    0.0400
     32 H32       -10.3735   -1.7036   51.3537 H       1  ZINC000058043838    0.0900
     33 H33       -12.1335   -4.2458   53.2135 H       1  ZINC000058043838    0.0600
     34 H34       -10.7371   -4.6114   54.2550 H       1  ZINC000058043838    0.0800
     35 H35       -10.9718   -2.2609   55.2117 H       1  ZINC000058043838    0.1200
     36 H36       -12.5121   -2.1363   54.3283 H       1  ZINC000058043838    0.1000
     37 H37       -15.1101   -5.4662   56.3908 H       1  ZINC000058043838    0.1100
     38 H38       -13.7129   -5.1885   57.4580 H       1  ZINC000058043838    0.1100
     39 H39       -16.7932   -3.4739   56.1470 H       1  ZINC000058043838    0.1300
     40 H40       -18.0900   -1.8967   57.5658 H       1  ZINC000058043838    0.1400
     41 H41       -18.1933   -1.6261   60.6635 H       1  ZINC000058043838    0.0800
     42 H42       -16.7899   -0.5327   60.7171 H       1  ZINC000058043838    0.0800
     43 H43       -18.0092   -0.3534   59.4327 H       1  ZINC000058043838    0.0800
     44 H44       -13.9569   -3.8060   59.3210 H       1  ZINC000058043838    0.1500
     45 H45        -8.7524   -3.3978   60.6349 H       1  ZINC000058043838    0.1600
     46 H46        -8.3268   -1.9776   62.5979 H       1  ZINC000058043838    0.1600
     47 H47       -12.1623   -0.1669   62.1405 H       1  ZINC000058043838    0.1600
     48 H48       -12.6031   -1.5750   60.1721 H       1  ZINC000058043838    0.1500
     49 H49        -9.9820   -5.2357   59.7717 H       1  ZINC000058043838    0.1800
@<TRIPOS>BOND
     1     1     2    1
     2     1    30    1
     3     1    31    1
     4     1    32    1
     5     2     3    1
     6     3     4    1
     7     3    33    1
     8     3    34    1
     9     4     5    1
    10     4    35    1
    11     4    36    1
    12     5     6   am
    13     5    16    1
    14     6     7    2
    15     6     8    1
    16     8     9    1
    17     8    37    1
    18     8    38    1
    19     9    15   ar
    20     9    10   ar
    21    10    11   ar
    22    10    39    1
    23    11    12   ar
    24    11    40    1
    25    12    13    1
    26    12    14   ar
    27    13    41    1
    28    13    42    1
    29    13    43    1
    30    14    15   ar
    31    15    44    1
    32    16    29    1
    33    16    17    2
    34    17    18    1
    35    18    19    1
    36    18    28    2
    37    19    27   ar
    38    19    20   ar
    39    20    21   ar
    40    20    45    1
    41    21    22   ar
    42    21    46    1
    43    22    23    1
    44    22    26   ar
    45    23    24    2
    46    23    25    2
    47    26    27   ar
    48    26    47    1
    49    27    48    1
    50    28    29    1
    51    28    49    1
@<TRIPOS>SUBSTRUCTURE
     1 ZINC000058043838        1 TEMP              0 ****  ****    0 ROOT


##########                                Name:    ZINC000508571532
##########                DOCK_Rotatable_Bonds:                   9
##########                         Heavy_Atoms:                  30
##########                    Molecular_Weight:             422.407
##########                DOCK_Rotatable_Bonds:                   9
##########                       Formal_Charge:           0.0100001
##########                     HBond_Acceptors:                  10
##########                        HBond_Donors:                   0
##########                         Heavy_Atoms:                  30
##########                          Grid_Score:          -37.759586
##########                     Grid_vdw_energy:          -36.908470
##########                      Grid_es_energy:           -0.851117
##########           Internal_energy_repulsive:           17.378700

@<TRIPOS>MOLECULE
ZINC000508571532
 51 53 1 0 0
SMALL
USER_CHARGES


@<TRIPOS>ATOM
      1 C1        -10.0862   -1.8038   51.9605 C.3     1  ZINC000508571532    0.0300
      2 O2        -10.6047   -3.1209   52.1567 O.3     1  ZINC000508571532   -0.3200
      3 C3        -11.5652   -3.2710   53.1075 C.ar    1  ZINC000508571532    0.0900
      4 C4        -12.0657   -4.5322   53.3944 C.ar    1  ZINC000508571532   -0.1700
      5 C5        -13.0415   -4.6849   54.3602 C.ar    1  ZINC000508571532   -0.1100
      6 C6        -13.5202   -3.5768   55.0434 C.ar    1  ZINC000508571532    0.0900
      7 O7        -14.4810   -3.7270   55.9938 O.3     1  ZINC000508571532   -0.3100
      8 C8        -14.2215   -4.6704   57.0353 C.3     1  ZINC000508571532    0.1500
      9 C9        -12.8711   -4.3898   57.6424 C.2     1  ZINC000508571532    0.1700
     10 N10       -11.7843   -5.0860   57.4638 N.2     1  ZINC000508571532   -0.2500
     11 N11       -10.8145   -4.5676   58.1291 N.2     1  ZINC000508571532   -0.3000
     12 C12       -11.2339   -3.5041   58.7730 C.2     1  ZINC000508571532    0.3500
     13 N13       -10.4746   -2.6847   59.5931 N.3     1  ZINC000508571532   -0.4600
     14 C14        -9.5387   -3.4741   60.4048 C.3     1  ZINC000508571532    0.0300
     15 C15        -9.7621   -1.6683   58.8074 C.3     1  ZINC000508571532    0.1100
     16 C16       -10.2655   -0.2985   59.1836 C.ar    1  ZINC000508571532   -0.0900
     17 C17       -10.4636    0.0244   60.5118 C.ar    1  ZINC000508571532   -0.0600
     18 C18       -10.9259    1.2809   60.8576 C.ar    1  ZINC000508571532   -0.1300
     19 C19       -11.1905    2.2171   59.8755 C.ar    1  ZINC000508571532   -0.0700
     20 C20       -10.9937    1.8991   58.5454 C.ar    1  ZINC000508571532   -0.1900
     21 C21       -10.5249    0.6412   58.1962 C.ar    1  ZINC000508571532    0.1100
     22 O22       -10.3304    0.3260   56.8887 O.3     1  ZINC000508571532   -0.3100
     23 C23        -9.4704    1.1835   56.1357 C.3     1  ZINC000508571532    0.6000
     24 F24       -10.2301    2.1882   55.5268 F       1  ZINC000508571532   -0.1600
     25 F25        -8.5274    1.7651   56.9901 F       1  ZINC000508571532   -0.1300
     26 F26        -8.8115    0.4370   55.1531 F       1  ZINC000508571532   -0.1600
     27 N27       -12.5577   -3.3538   58.4782 N.pl3   1  ZINC000508571532   -0.4500
     28 C28       -13.4587   -2.3058   58.9639 C.3     1  ZINC000508571532    0.0800
     29 C29       -13.0186   -2.3157   54.7575 C.ar    1  ZINC000508571532   -0.1700
     30 C30       -12.0402   -2.1636   53.7944 C.ar    1  ZINC000508571532   -0.1100
     31 H31        -9.3296   -1.8243   51.1761 H       1  ZINC000508571532    0.1000
     32 H32       -10.8953   -1.1347   51.6675 H       1  ZINC000508571532    0.0600
     33 H33        -9.6382   -1.4478   52.8882 H       1  ZINC000508571532    0.0600
     34 H34       -11.6929   -5.3950   52.8624 H       1  ZINC000508571532    0.1400
     35 H35       -13.4318   -5.6669   54.5831 H       1  ZINC000508571532    0.1300
     36 H36       -14.9902   -4.5843   57.8033 H       1  ZINC000508571532    0.0800
     37 H37       -14.2318   -5.6792   56.6225 H       1  ZINC000508571532    0.1000
     38 H38        -8.7789   -3.9139   59.7587 H       1  ZINC000508571532    0.0600
     39 H39        -9.0602   -2.8271   61.1400 H       1  ZINC000508571532    0.0800
     40 H40       -10.0824   -4.2671   60.9181 H       1  ZINC000508571532    0.0700
     41 H41        -8.6938   -1.7322   59.0142 H       1  ZINC000508571532    0.0700
     42 H42        -9.9377   -1.8410   57.7456 H       1  ZINC000508571532    0.0900
     43 H43       -10.2575   -0.7053   61.2809 H       1  ZINC000508571532    0.1400
     44 H44       -11.0808    1.5312   61.8967 H       1  ZINC000508571532    0.1300
     45 H45       -11.5519    3.1976   60.1480 H       1  ZINC000508571532    0.1400
     46 H46       -11.2009    2.6308   57.7784 H       1  ZINC000508571532    0.1400
     47 H47       -13.5070   -1.5000   58.2316 H       1  ZINC000508571532    0.0900
     48 H48       -14.4550   -2.7228   59.1116 H       1  ZINC000508571532    0.0900
     49 H49       -13.0847   -1.9149   59.9101 H       1  ZINC000508571532    0.1000
     50 H50       -13.3912   -1.4530   55.2897 H       1  ZINC000508571532    0.1400
     51 H51       -11.6496   -1.1817   53.5717 H       1  ZINC000508571532    0.1400
@<TRIPOS>BOND
     1     1     2    1
     2     1    31    1
     3     1    32    1
     4     1    33    1
     5     2     3    1
     6     3    30   ar
     7     3     4   ar
     8     4     5   ar
     9     4    34    1
    10     5     6   ar
    11     5    35    1
    12     6     7    1
    13     6    29   ar
    14     7     8    1
    15     8     9    1
    16     8    36    1
    17     8    37    1
    18     9    27    1
    19     9    10    2
    20    10    11    1
    21    11    12    2
    22    12    13    1
    23    12    27    1
    24    13    14    1
    25    13    15    1
    26    14    38    1
    27    14    39    1
    28    14    40    1
    29    15    16    1
    30    15    41    1
    31    15    42    1
    32    16    21   ar
    33    16    17   ar
    34    17    18   ar
    35    17    43    1
    36    18    19   ar
    37    18    44    1
    38    19    20   ar
    39    19    45    1
    40    20    21   ar
    41    20    46    1
    42    21    22    1
    43    22    23    1
    44    23    24    1
    45    23    25    1
    46    23    26    1
    47    27    28    1
    48    28    47    1
    49    28    48    1
    50    28    49    1
    51    29    30   ar
    52    29    50    1
    53    30    51    1
@<TRIPOS>SUBSTRUCTURE
     1 ZINC000508571532        1 TEMP              0 ****  ****    0 ROOT


##########                                Name:    ZINC001284642199
##########                DOCK_Rotatable_Bonds:                   8
##########                         Heavy_Atoms:                  25
##########                    Molecular_Weight:             346.516
##########                DOCK_Rotatable_Bonds:                   8
##########                       Formal_Charge:         -3.8743e-07
##########                     HBond_Acceptors:                   5
##########                        HBond_Donors:                   2
##########                         Heavy_Atoms:                  25
##########                          Grid_Score:          -37.756954
##########                     Grid_vdw_energy:          -37.237103
##########                      Grid_es_energy:           -0.519851
##########           Internal_energy_repulsive:           18.377514

@<TRIPOS>MOLECULE
ZINC001284642199
 59 60 1 0 0
SMALL
USER_CHARGES


@<TRIPOS>ATOM
      1 C1         -6.7341    1.0579   51.4915 C.3     1  ZINC001284642199   -0.1100
      2 C2         -7.9988    0.2806   51.7507 C.ar    1  ZINC001284642199   -0.1900
      3 C3         -8.0546   -1.0838   51.5131 C.ar    1  ZINC001284642199    0.1500
      4 N4         -9.1823   -1.7334   51.7529 N.ar    1  ZINC001284642199   -0.4900
      5 C5        -10.2426   -1.0988   52.2115 C.ar    1  ZINC001284642199    0.3100
      6 C6        -11.5074   -1.8763   52.4707 C.3     1  ZINC001284642199    0.1300
      7 N7        -11.4408   -2.4889   53.8042 N.3     1  ZINC001284642199   -0.6800
      8 C8        -12.6639   -3.2483   54.0962 C.3     1  ZINC001284642199    0.0500
      9 C9        -12.5279   -3.9300   55.4592 C.3     1  ZINC001284642199    0.1600
     10 H10       -11.7862   -4.7263   55.3947 H       1  ZINC001284642199    0.1000
     11 N11       -12.1022   -2.9457   56.4572 N.am    1  ZINC001284642199   -0.7200
     12 C12       -11.1321   -3.2569   57.3396 C.2     1  ZINC001284642199    0.5200
     13 O13       -10.6106   -4.3514   57.3065 O.2     1  ZINC001284642199   -0.5300
     14 C14       -10.6955   -2.2450   58.3674 C.3     1  ZINC001284642199   -0.1100
     15 H15       -10.0079   -1.5345   57.9084 H       1  ZINC001284642199    0.0900
     16 C16       -11.9200   -1.4982   58.9001 C.3     1  ZINC001284642199   -0.1000
     17 C17       -11.4767   -0.4708   59.9436 C.3     1  ZINC001284642199   -0.1100
     18 C18       -10.7740   -1.1874   61.0984 C.3     1  ZINC001284642199   -0.0900
     19 H19       -11.4616   -1.8978   61.5573 H       1  ZINC001284642199    0.0700
     20 C20       -10.3306   -0.1599   62.1418 C.3     1  ZINC001284642199   -0.1500
     21 C21        -9.5495   -1.9341   60.5657 C.3     1  ZINC001284642199   -0.1100
     22 C22        -9.9928   -2.9615   59.5223 C.3     1  ZINC001284642199   -0.1100
     23 C23       -13.8774   -4.5221   55.8703 C.3     1  ZINC001284642199   -0.0800
     24 C24       -14.8231   -3.3945   56.2883 C.3     1  ZINC001284642199   -0.1400
     25 C25       -14.4818   -5.2829   54.6883 C.3     1  ZINC001284642199   -0.1400
     26 C26       -13.6768   -5.4814   57.0452 C.3     1  ZINC001284642199   -0.1300
     27 N27       -10.2279    0.1983   52.4444 N.ar    1  ZINC001284642199   -0.5100
     28 C28        -9.1341    0.9126   52.2329 C.ar    1  ZINC001284642199    0.1500
     29 H29        -6.7376    1.4257   50.4654 H       1  ZINC001284642199    0.0800
     30 H30        -6.6785    1.9014   52.1795 H       1  ZINC001284642199    0.0700
     31 H31        -5.8714    0.4089   51.6418 H       1  ZINC001284642199    0.0700
     32 H32        -7.1895   -1.6096   51.1370 H       1  ZINC001284642199    0.1700
     33 H33       -11.6151   -2.6566   51.7174 H       1  ZINC001284642199    0.1000
     34 H34       -12.3636   -1.2036   52.4222 H       1  ZINC001284642199    0.0600
     35 H35       -11.2695   -1.7925   54.5140 H       1  ZINC001284642199    0.3400
     36 H36       -12.8151   -4.0041   53.3254 H       1  ZINC001284642199    0.0900
     37 H37       -13.5173   -2.5704   54.1127 H       1  ZINC001284642199    0.0400
     38 H38       -12.5184   -2.0699   56.4829 H       1  ZINC001284642199    0.3900
     39 H39       -12.6076   -2.2086   59.3590 H       1  ZINC001284642199    0.0700
     40 H40       -12.4207   -0.9877   58.0774 H       1  ZINC001284642199    0.0700
     41 H41       -12.3490    0.0612   60.3231 H       1  ZINC001284642199    0.0700
     42 H42       -10.7891    0.2397   59.4847 H       1  ZINC001284642199    0.0600
     43 H43       -11.2030    0.3720   62.5214 H       1  ZINC001284642199    0.0500
     44 H44        -9.8300   -0.6704   62.9646 H       1  ZINC001284642199    0.0500
     45 H45        -9.6431    0.5504   61.6830 H       1  ZINC001284642199    0.0500
     46 H46        -8.8619   -1.2237   60.1067 H       1  ZINC001284642199    0.0600
     47 H47        -9.0489   -2.4446   61.3883 H       1  ZINC001284642199    0.0700
     48 H48       -10.6804   -3.6720   59.9812 H       1  ZINC001284642199    0.0700
     49 H49        -9.1205   -3.4935   59.1427 H       1  ZINC001284642199    0.0600
     50 H50       -14.9660   -2.7111   55.4512 H       1  ZINC001284642199    0.0600
     51 H51       -15.7845   -3.8163   56.5812 H       1  ZINC001284642199    0.0600
     52 H52       -14.3925   -2.8525   57.1304 H       1  ZINC001284642199    0.0500
     53 H53       -13.8082   -6.0863   54.3905 H       1  ZINC001284642199    0.0600
     54 H54       -15.4433   -5.7047   54.9812 H       1  ZINC001284642199    0.0600
     55 H55       -14.6248   -4.5995   53.8513 H       1  ZINC001284642199    0.0600
     56 H56       -13.2462   -4.9395   57.8872 H       1  ZINC001284642199    0.0500
     57 H57       -14.6383   -5.9033   57.3381 H       1  ZINC001284642199    0.0500
     58 H58       -13.0031   -6.2848   56.7474 H       1  ZINC001284642199    0.0600
     59 H59        -9.1276    1.9746   52.4294 H       1  ZINC001284642199    0.1700
@<TRIPOS>BOND
     1     1     2    1
     2     1    29    1
     3     1    30    1
     4     1    31    1
     5     2    28   ar
     6     2     3   ar
     7     3     4   ar
     8     3    32    1
     9     4     5   ar
    10     5     6    1
    11     5    27   ar
    12     6     7    1
    13     6    33    1
    14     6    34    1
    15     7     8    1
    16     7    35    1
    17     8     9    1
    18     8    36    1
    19     8    37    1
    20     9    10    1
    21     9    11    1
    22     9    23    1
    23    11    12   am
    24    11    38    1
    25    12    13    2
    26    12    14    1
    27    14    15    1
    28    14    22    1
    29    14    16    1
    30    16    17    1
    31    16    39    1
    32    16    40    1
    33    17    18    1
    34    17    41    1
    35    17    42    1
    36    18    19    1
    37    18    20    1
    38    18    21    1
    39    20    43    1
    40    20    44    1
    41    20    45    1
    42    21    22    1
    43    21    46    1
    44    21    47    1
    45    22    48    1
    46    22    49    1
    47    23    24    1
    48    23    25    1
    49    23    26    1
    50    24    50    1
    51    24    51    1
    52    24    52    1
    53    25    53    1
    54    25    54    1
    55    25    55    1
    56    26    56    1
    57    26    57    1
    58    26    58    1
    59    27    28   ar
    60    28    59    1
@<TRIPOS>SUBSTRUCTURE
     1 ZINC001284642199        1 TEMP              0 ****  ****    0 ROOT


##########                                Name:    ZINC000114394234
##########                DOCK_Rotatable_Bonds:                   9
##########                         Heavy_Atoms:                  27
##########                    Molecular_Weight:             365.392
##########                DOCK_Rotatable_Bonds:                   9
##########                       Formal_Charge:           0.0300002
##########                     HBond_Acceptors:                   8
##########                        HBond_Donors:                   3
##########                         Heavy_Atoms:                  27
##########                          Grid_Score:          -37.704525
##########                     Grid_vdw_energy:          -34.851063
##########                      Grid_es_energy:           -2.853462
##########           Internal_energy_repulsive:           10.842592

@<TRIPOS>MOLECULE
ZINC000114394234
 46 48 1 0 0
SMALL
USER_CHARGES


@<TRIPOS>ATOM
      1 C1        -11.0070    2.3087   58.3065 C.3     1  ZINC000114394234   -0.1600
      2 C2         -9.9190    1.7347   57.3967 C.3     1  ZINC000114394234    0.1300
      3 H3        -10.0599    2.1074   56.3821 H       1  ZINC000114394234    0.1200
      4 N4         -8.6025    2.1469   57.8899 N.am    1  ZINC000114394234   -0.7100
      5 C5         -7.6080    2.4083   57.0186 C.2     1  ZINC000114394234    0.5200
      6 O6         -7.8025    2.3007   55.8262 O.2     1  ZINC000114394234   -0.5100
      7 C7         -6.2544    2.8339   57.5257 C.3     1  ZINC000114394234    0.0400
      8 O8         -5.2356    2.2564   56.7068 O.3     1  ZINC000114394234   -0.2900
      9 C9         -3.9472    2.5428   57.0309 C.ar    1  ZINC000114394234    0.1300
     10 C10        -3.6682    3.3345   58.1356 C.ar    1  ZINC000114394234   -0.2100
     11 C11        -2.3577    3.6237   58.4632 C.ar    1  ZINC000114394234   -0.0800
     12 C12        -1.3246    3.1253   57.6912 C.ar    1  ZINC000114394234   -0.1600
     13 C13        -1.6001    2.3365   56.5895 C.ar    1  ZINC000114394234   -0.0800
     14 C14        -2.9087    2.0392   56.2612 C.ar    1  ZINC000114394234   -0.1500
     15 C15       -10.0069    0.2303   57.3960 C.2     1  ZINC000114394234    0.5100
     16 O16        -9.8117   -0.3880   56.3709 O.2     1  ZINC000114394234   -0.5100
     17 N17       -10.3024   -0.4281   58.5342 N.am    1  ZINC000114394234   -0.6700
     18 C18       -10.3839   -1.8250   58.5334 C.ar    1  ZINC000114394234    0.1300
     19 C19        -9.4839   -2.5740   59.2812 C.ar    1  ZINC000114394234   -0.1200
     20 C20        -9.5614   -3.9540   59.2829 C.ar    1  ZINC000114394234   -0.1000
     21 C21       -10.5329   -4.5957   58.5414 C.ar    1  ZINC000114394234   -0.0900
     22 C22       -11.4396   -3.8523   57.7878 C.ar    1  ZINC000114394234    0.0000
     23 C23       -12.4844   -4.5408   56.9897 C.2     1  ZINC000114394234    0.2700
     24 N24       -12.5918   -4.5111   55.6794 N.2     1  ZINC000114394234   -0.3000
     25 N25       -13.7113   -5.2916   55.3482 N.pl3   1  ZINC000114394234   -0.4800
     26 C26       -14.2149   -5.7497   56.5084 C.2     1  ZINC000114394234    0.2700
     27 N27       -13.4712   -5.3002   57.4844 N.2     1  ZINC000114394234   -0.5300
     28 C28       -11.3667   -2.4623   57.7907 C.ar    1  ZINC000114394234   -0.0800
     29 H29       -10.8662    1.9360   59.3211 H       1  ZINC000114394234    0.0700
     30 H30       -10.9435    3.3969   58.3070 H       1  ZINC000114394234    0.0800
     31 H31       -11.9865    2.0020   57.9395 H       1  ZINC000114394234    0.0800
     32 H32        -8.4466    2.2317   58.8435 H       1  ZINC000114394234    0.4100
     33 H33        -6.1777    3.9206   57.4888 H       1  ZINC000114394234    0.1000
     34 H34        -6.1288    2.4957   58.5543 H       1  ZINC000114394234    0.1000
     35 H35        -4.4748    3.7247   58.7385 H       1  ZINC000114394234    0.1300
     36 H36        -2.1400    4.2400   59.3230 H       1  ZINC000114394234    0.1300
     37 H37        -0.3008    3.3528   57.9488 H       1  ZINC000114394234    0.1300
     38 H38        -0.7915    1.9487   55.9879 H       1  ZINC000114394234    0.1300
     39 H39        -3.1233    1.4230   55.4006 H       1  ZINC000114394234    0.1300
     40 H40       -10.4584    0.0665   59.3539 H       1  ZINC000114394234    0.4200
     41 H41        -8.7216   -2.0766   59.8625 H       1  ZINC000114394234    0.1300
     42 H42        -8.8594   -4.5319   59.8658 H       1  ZINC000114394234    0.1400
     43 H43       -10.5901   -5.6742   58.5448 H       1  ZINC000114394234    0.1400
     44 H44       -14.0542   -5.4658   54.4577 H       1  ZINC000114394234    0.4400
     45 H45       -15.0824   -6.3843   56.6148 H       1  ZINC000114394234    0.2300
     46 H46       -12.0671   -1.8819   57.2085 H       1  ZINC000114394234    0.1500
@<TRIPOS>BOND
     1     1     2    1
     2     1    29    1
     3     1    30    1
     4     1    31    1
     5     2     3    1
     6     2     4    1
     7     2    15    1
     8     4     5   am
     9     4    32    1
    10     5     6    2
    11     5     7    1
    12     7     8    1
    13     7    33    1
    14     7    34    1
    15     8     9    1
    16     9    14   ar
    17     9    10   ar
    18    10    11   ar
    19    10    35    1
    20    11    12   ar
    21    11    36    1
    22    12    13   ar
    23    12    37    1
    24    13    14   ar
    25    13    38    1
    26    14    39    1
    27    15    16    2
    28    15    17   am
    29    17    18    1
    30    17    40    1
    31    18    28   ar
    32    18    19   ar
    33    19    20   ar
    34    19    41    1
    35    20    21   ar
    36    20    42    1
    37    21    22   ar
    38    21    43    1
    39    22    23    1
    40    22    28   ar
    41    23    27    1
    42    23    24    2
    43    24    25    1
    44    25    26    1
    45    25    44    1
    46    26    27    2
    47    26    45    1
    48    28    46    1
@<TRIPOS>SUBSTRUCTURE
     1 ZINC000114394234        1 TEMP              0 ****  ****    0 ROOT


##########                                Name:    ZINC001461256440
##########                DOCK_Rotatable_Bonds:                  13
##########                         Heavy_Atoms:                  26
##########                    Molecular_Weight:             367.445
##########                DOCK_Rotatable_Bonds:                  13
##########                       Formal_Charge:        -6.37025e-07
##########                     HBond_Acceptors:                   8
##########                        HBond_Donors:                   1
##########                         Heavy_Atoms:                  26
##########                          Grid_Score:          -37.602268
##########                     Grid_vdw_energy:          -37.148365
##########                      Grid_es_energy:           -0.453905
##########           Internal_energy_repulsive:           18.397079

@<TRIPOS>MOLECULE
ZINC001461256440
 55 55 1 0 0
SMALL
USER_CHARGES


@<TRIPOS>ATOM
      1 C1        -11.0021    0.2022   53.0578 C.3     1  ZINC001461256440   -0.1500
      2 C2         -9.6243   -0.2925   52.6131 C.3     1  ZINC001461256440    0.0600
      3 O3         -9.0503    0.6539   51.6733 O.3     1  ZINC001461256440   -0.3600
      4 C4         -7.8511    0.3466   51.1548 C.2     1  ZINC001461256440    0.4400
      5 O5         -7.3914   -0.7599   51.3099 O.2     1  ZINC001461256440   -0.4800
      6 C6         -7.0778    1.3818   50.3791 C.3     1  ZINC001461256440    0.1400
      7 N7         -6.0621    1.9838   51.2464 N.pl3   1  ZINC001461256440   -0.3800
      8 N8         -6.3022    2.6694   52.4440 N.2     1  ZINC001461256440   -0.2800
      9 C9         -5.1530    3.0596   52.9333 C.2     1  ZINC001461256440    0.1000
     10 C10        -4.9551    3.8311   54.2126 C.3     1  ZINC001461256440   -0.0700
     11 C11        -4.1407    2.6379   52.0671 C.2     1  ZINC001461256440   -0.2700
     12 C12        -4.7261    1.9709   51.0352 C.2     1  ZINC001461256440    0.3100
     13 N13        -4.0686    1.3874   49.9524 N.am    1  ZINC001461256440   -0.6500
     14 C14        -3.1433    2.0889   49.2682 C.2     1  ZINC001461256440    0.5200
     15 O15        -2.8814    3.2273   49.5949 O.2     1  ZINC001461256440   -0.5000
     16 C16        -2.4342    1.4591   48.0971 C.3     1  ZINC001461256440   -0.1300
     17 C17        -3.1390    1.8585   46.7993 C.3     1  ZINC001461256440   -0.1100
     18 C18        -2.1500    1.7738   45.6349 C.3     1  ZINC001461256440   -0.1100
     19 C19        -1.5208    0.3795   45.6006 C.3     1  ZINC001461256440   -0.1200
     20 C20        -0.7987    0.1864   44.2921 C.2     1  ZINC001461256440    0.4600
     21 O21        -1.4275    0.0355   43.2715 O.2     1  ZINC001461256440   -0.5000
     22 O22         0.5433    0.1822   44.2604 O.3     1  ZINC001461256440   -0.3500
     23 C23         1.1850    1.1445   43.3825 C.3     1  ZINC001461256440    0.1200
     24 C24         1.1501    0.6248   41.9439 C.3     1  ZINC001461256440   -0.1800
     25 C25         0.4428    2.4801   43.4604 C.3     1  ZINC001461256440   -0.1400
     26 C26         2.6382    1.3424   43.8182 C.3     1  ZINC001461256440   -0.1800
     27 H27       -11.4330   -0.5083   53.7632 H       1  ZINC001461256440    0.0800
     28 H28       -10.9011    1.1753   53.5381 H       1  ZINC001461256440    0.0700
     29 H29       -11.6539    0.2919   52.1887 H       1  ZINC001461256440    0.0700
     30 H30        -8.9725   -0.3823   53.4822 H       1  ZINC001461256440    0.0700
     31 H31        -9.7253   -1.2657   52.1327 H       1  ZINC001461256440    0.0700
     32 H32        -6.5926    0.9087   49.5255 H       1  ZINC001461256440    0.1300
     33 H33        -7.7595    2.1558   50.0266 H       1  ZINC001461256440    0.1400
     34 H34        -4.8296    3.1344   55.0414 H       1  ZINC001461256440    0.0800
     35 H35        -4.0666    4.4565   54.1260 H       1  ZINC001461256440    0.0800
     36 H36        -5.8261    4.4605   54.3958 H       1  ZINC001461256440    0.0700
     37 H37        -3.0818    2.8079   52.1956 H       1  ZINC001461256440    0.1800
     38 H38        -4.2772    0.4766   49.6919 H       1  ZINC001461256440    0.4100
     39 H39        -1.4004    1.8038   48.0702 H       1  ZINC001461256440    0.1000
     40 H40        -2.4528    0.3743   48.2018 H       1  ZINC001461256440    0.1000
     41 H41        -3.9742    1.1824   46.6165 H       1  ZINC001461256440    0.0800
     42 H42        -3.5105    2.8794   46.8868 H       1  ZINC001461256440    0.0800
     43 H43        -2.6753    1.9585   44.6979 H       1  ZINC001461256440    0.0700
     44 H44        -1.3684    2.5219   45.7669 H       1  ZINC001461256440    0.0700
     45 H45        -0.8137    0.2796   46.4240 H       1  ZINC001461256440    0.1100
     46 H46        -2.3021   -0.3742   45.6991 H       1  ZINC001461256440    0.1100
     47 H47         0.1148    0.4837   41.6335 H       1  ZINC001461256440    0.0600
     48 H48         1.6318    1.3471   41.2848 H       1  ZINC001461256440    0.0700
     49 H49         1.6788   -0.3268   41.8884 H       1  ZINC001461256440    0.0800
     50 H50         0.4676    2.8503   44.4853 H       1  ZINC001461256440    0.0700
     51 H51         0.9244    3.2023   42.8014 H       1  ZINC001461256440    0.0800
     52 H52        -0.5926    2.3390   43.1500 H       1  ZINC001461256440    0.0700
     53 H53         3.1670    0.3908   43.7626 H       1  ZINC001461256440    0.0800
     54 H54         3.1198    2.0647   43.1592 H       1  ZINC001461256440    0.0700
     55 H55         2.6631    1.7126   44.8430 H       1  ZINC001461256440    0.0600
@<TRIPOS>BOND
     1     1     2    1
     2     1    27    1
     3     1    28    1
     4     1    29    1
     5     2     3    1
     6     2    30    1
     7     2    31    1
     8     3     4    1
     9     4     5    2
    10     4     6    1
    11     6     7    1
    12     6    32    1
    13     6    33    1
    14     7    12    1
    15     7     8    1
    16     8     9    2
    17     9    10    1
    18     9    11    1
    19    10    34    1
    20    10    35    1
    21    10    36    1
    22    11    12    2
    23    11    37    1
    24    12    13    1
    25    13    14   am
    26    13    38    1
    27    14    15    2
    28    14    16    1
    29    16    17    1
    30    16    39    1
    31    16    40    1
    32    17    18    1
    33    17    41    1
    34    17    42    1
    35    18    19    1
    36    18    43    1
    37    18    44    1
    38    19    20    1
    39    19    45    1
    40    19    46    1
    41    20    21    2
    42    20    22    1
    43    22    23    1
    44    23    24    1
    45    23    25    1
    46    23    26    1
    47    24    47    1
    48    24    48    1
    49    24    49    1
    50    25    50    1
    51    25    51    1
    52    25    52    1
    53    26    53    1
    54    26    54    1
    55    26    55    1
@<TRIPOS>SUBSTRUCTURE
     1 ZINC001461256440        1 TEMP              0 ****  ****    0 ROOT


##########                                Name:    ZINC001574157642
##########                DOCK_Rotatable_Bonds:                   9
##########                         Heavy_Atoms:                  28
##########                    Molecular_Weight:             387.445
##########                DOCK_Rotatable_Bonds:                   9
##########                       Formal_Charge:          -0.0400004
##########                     HBond_Acceptors:                  11
##########                        HBond_Donors:                   4
##########                         Heavy_Atoms:                  28
##########                          Grid_Score:          -37.598534
##########                     Grid_vdw_energy:          -38.107494
##########                      Grid_es_energy:            0.508960
##########           Internal_energy_repulsive:            9.365807

@<TRIPOS>MOLECULE
ZINC001574157642
 53 55 1 0 0
SMALL
USER_CHARGES


@<TRIPOS>ATOM
      1 C1         -2.6865    3.6004   52.8837 C.3     1  ZINC001574157642   -0.1400
      2 C2         -2.7942    3.6983   51.3606 C.3     1  ZINC001574157642   -0.0900
      3 C3         -1.7210    4.6531   50.8338 C.3     1  ZINC001574157642   -0.1500
      4 C4         -2.5906    2.3126   50.7448 C.3     1  ZINC001574157642   -0.1300
      5 C5         -3.4607    2.1778   49.4934 C.3     1  ZINC001574157642    0.1300
      6 H6         -3.8127    3.1630   49.1877 H       1  ZINC001574157642    0.1100
      7 C7         -4.6609    1.2801   49.8009 C.3     1  ZINC001574157642    0.1100
      8 N8         -5.6042    2.0026   50.6578 N.pl3   1  ZINC001574157642   -0.7100
      9 C9         -6.6809    1.3325   51.2252 C.ar    1  ZINC001574157642    0.3700
     10 C10        -7.5151    1.9917   52.1264 C.ar    1  ZINC001574157642    0.0000
     11 N11        -8.5366    1.3565   52.6655 N.ar    1  ZINC001574157642   -0.3700
     12 C12        -8.7717    0.0862   52.3491 C.ar    1  ZINC001574157642    0.0800
     13 C13        -9.9218   -0.6291   52.9554 C.2     1  ZINC001574157642    0.2300
     14 N14       -10.8010   -0.1313   53.8026 N.2     1  ZINC001574157642   -0.2700
     15 N15       -11.6405   -1.0647   54.0934 N.pl3   1  ZINC001574157642   -0.2300
     16 N16       -11.3215   -2.1378   53.4579 N.2     1  ZINC001574157642   -0.0400
     17 N17       -10.2727   -1.9058   52.7439 N.2     1  ZINC001574157642   -0.2600
     18 C18        -7.9382   -0.5724   51.4481 C.ar    1  ZINC001574157642    0.1600
     19 N19        -6.9181    0.0664   50.9047 N.ar    1  ZINC001574157642   -0.5000
     20 N20        -2.6713    1.5841   48.4115 N.am    1  ZINC001574157642   -0.7300
     21 C21        -2.3147    2.3322   47.3486 C.2     1  ZINC001574157642    0.5200
     22 O22        -2.6485    3.4965   47.2872 O.2     1  ZINC001574157642   -0.5100
     23 C23        -1.5011    1.7219   46.2365 C.3     1  ZINC001574157642   -0.1300
     24 H24        -0.5734    1.3176   46.6415 H       1  ZINC001574157642    0.1100
     25 C25        -1.1807    2.7923   45.1863 C.3     1  ZINC001574157642   -0.1000
     26 C26        -0.2064    2.1948   44.1681 C.3     1  ZINC001574157642   -0.1400
     27 C27        -0.7094    0.8585   43.7028 C.2     1  ZINC001574157642    0.5200
     28 O28        -0.2503    0.3970   42.6794 O.2     1  ZINC001574157642   -0.5500
     29 N29        -1.6334    0.1519   44.3549 N.am    1  ZINC001574157642   -0.7200
     30 C30        -2.3013    0.6017   45.5706 C.3     1  ZINC001574157642    0.1200
     31 H31        -1.7003    3.2236   53.1548 H       1  ZINC001574157642    0.0400
     32 H32        -2.8316    4.5876   53.3223 H       1  ZINC001574157642    0.0500
     33 H33        -3.4511    2.9202   53.2589 H       1  ZINC001574157642    0.0700
     34 H34        -3.7804    4.0751   51.0895 H       1  ZINC001574157642    0.0700
     35 H35        -0.7347    4.2763   51.1049 H       1  ZINC001574157642    0.0500
     36 H36        -1.7976    4.7229   49.7487 H       1  ZINC001574157642    0.0500
     37 H37        -1.8660    5.6403   51.2725 H       1  ZINC001574157642    0.0500
     38 H38        -1.5425    2.1858   50.4739 H       1  ZINC001574157642    0.0700
     39 H39        -2.8740    1.5483   51.4683 H       1  ZINC001574157642    0.0800
     40 H40        -5.1549    1.0024   48.8699 H       1  ZINC001574157642    0.0800
     41 H41        -4.3198    0.3806   50.3136 H       1  ZINC001574157642    0.0900
     42 H42        -5.4771    2.9489   50.8291 H       1  ZINC001574157642    0.4100
     43 H43        -7.3243    3.0232   52.3834 H       1  ZINC001574157642    0.1700
     44 H44       -12.3944   -0.9732   54.6969 H       1  ZINC001574157642    0.4800
     45 H45        -8.1284   -1.6040   51.1910 H       1  ZINC001574157642    0.1800
     46 H46        -2.4053    0.6525   48.4600 H       1  ZINC001574157642    0.4000
     47 H47        -2.0975    3.0973   44.6817 H       1  ZINC001574157642    0.0800
     48 H48        -0.7228    3.6553   45.6698 H       1  ZINC001574157642    0.0900
     49 H49        -0.1185    2.8661   43.3139 H       1  ZINC001574157642    0.1100
     50 H50         0.7721    2.0716   44.6325 H       1  ZINC001574157642    0.1000
     51 H51        -1.8754   -0.7176   43.9995 H       1  ZINC001574157642    0.4000
     52 H52        -2.3980   -0.2371   46.2599 H       1  ZINC001574157642    0.0800
     53 H53        -3.2945    0.9739   45.3193 H       1  ZINC001574157642    0.0700
@<TRIPOS>BOND
     1     1     2    1
     2     1    31    1
     3     1    32    1
     4     1    33    1
     5     2     3    1
     6     2     4    1
     7     2    34    1
     8     3    35    1
     9     3    36    1
    10     3    37    1
    11     4     5    1
    12     4    38    1
    13     4    39    1
    14     5     6    1
    15     5     7    1
    16     5    20    1
    17     7     8    1
    18     7    40    1
    19     7    41    1
    20     8     9    1
    21     8    42    1
    22     9    19   ar
    23     9    10   ar
    24    10    11   ar
    25    10    43    1
    26    11    12   ar
    27    12    13    1
    28    12    18   ar
    29    13    17    1
    30    13    14    2
    31    14    15    1
    32    15    16    1
    33    15    44    1
    34    16    17    2
    35    18    19   ar
    36    18    45    1
    37    20    21   am
    38    20    46    1
    39    21    22    2
    40    21    23    1
    41    23    24    1
    42    23    30    1
    43    23    25    1
    44    25    26    1
    45    25    47    1
    46    25    48    1
    47    26    27    1
    48    26    49    1
    49    26    50    1
    50    27    28    2
    51    27    29   am
    52    29    30    1
    53    29    51    1
    54    30    52    1
    55    30    53    1
@<TRIPOS>SUBSTRUCTURE
     1 ZINC001574157642        1 TEMP              0 ****  ****    0 ROOT


##########                                Name:    ZINC000912668252
##########                DOCK_Rotatable_Bonds:                  10
##########                         Heavy_Atoms:                  30
##########                    Molecular_Weight:             411.433
##########                DOCK_Rotatable_Bonds:                  10
##########                       Formal_Charge:           0.0199993
##########                     HBond_Acceptors:                   8
##########                        HBond_Donors:                   2
##########                         Heavy_Atoms:                  30
##########                          Grid_Score:          -37.591949
##########                     Grid_vdw_energy:          -35.381050
##########                      Grid_es_energy:           -2.210898
##########           Internal_energy_repulsive:           15.184960

@<TRIPOS>MOLECULE
ZINC000912668252
 52 54 1 0 0
SMALL
USER_CHARGES


@<TRIPOS>ATOM
      1 C1         -5.6111    1.1374   50.9167 C.3     1  ZINC000912668252   -0.1700
      2 C2         -6.9436    0.4934   50.5289 C.3     1  ZINC000912668252    0.1100
      3 N3         -8.0037    0.9997   51.4040 N.am    1  ZINC000912668252   -0.6100
      4 C4         -8.2274    2.4425   51.5246 C.3     1  ZINC000912668252    0.1000
      5 C5         -7.6058    2.9478   52.8282 C.3     1  ZINC000912668252   -0.1800
      6 C6         -8.7733    0.1382   52.0983 C.2     1  ZINC000912668252    0.5600
      7 O7         -8.5878   -1.0589   51.9982 O.2     1  ZINC000912668252   -0.5300
      8 C8         -9.8433    0.6492   52.9816 C.ar    1  ZINC000912668252   -0.1100
      9 C9        -11.0752    1.0253   52.4439 C.ar    1  ZINC000912668252   -0.1100
     10 C10       -12.0725    1.5016   53.2707 C.ar    1  ZINC000912668252   -0.1000
     11 C11       -11.8562    1.6079   54.6317 C.ar    1  ZINC000912668252   -0.1200
     12 C12       -10.6330    1.2360   55.1769 C.ar    1  ZINC000912668252    0.1400
     13 N13       -10.4192    1.3452   56.5558 N.am    1  ZINC000912668252   -0.6700
     14 C14       -10.3550    0.2354   57.3177 C.2     1  ZINC000912668252    0.5200
     15 O15       -10.4825   -0.8581   56.8086 O.2     1  ZINC000912668252   -0.4900
     16 C16       -10.1248    0.3530   58.8024 C.3     1  ZINC000912668252    0.0500
     17 O17        -9.3281   -0.7717   59.2593 O.3     1  ZINC000912668252   -0.3300
     18 C18        -9.7808   -1.4454   60.3360 C.2     1  ZINC000912668252    0.5400
     19 O19       -10.2714   -2.5494   60.2002 O.2     1  ZINC000912668252   -0.4800
     20 C20        -9.6812   -0.8454   61.6731 C.2     1  ZINC000912668252    0.0400
     21 C21        -9.1584   -1.4514   62.7721 C.2     1  ZINC000912668252   -0.0900
     22 C22        -9.2488   -0.5400   63.8512 C.ar    1  ZINC000912668252   -0.1000
     23 C23        -8.8784   -0.6077   65.2007 C.ar    1  ZINC000912668252   -0.0900
     24 C24        -9.0992    0.4632   66.0203 C.ar    1  ZINC000912668252    0.0700
     25 F25        -8.7413    0.3958   67.3213 F       1  ZINC000912668252   -0.1400
     26 C26        -9.6889    1.6221   65.5266 C.ar    1  ZINC000912668252   -0.1100
     27 C27       -10.0615    1.7110   64.2039 C.ar    1  ZINC000912668252   -0.1000
     28 C28        -9.8466    0.6331   63.3499 C.ar    1  ZINC000912668252    0.1100
     29 N29       -10.0984    0.4272   62.0133 N.pl3   1  ZINC000912668252   -0.5600
     30 C30        -9.6269    0.7516   54.3559 C.ar    1  ZINC000912668252   -0.0700
     31 H31        -4.8223    0.7607   50.2655 H       1  ZINC000912668252    0.0700
     32 H32        -5.6855    2.2195   50.8088 H       1  ZINC000912668252    0.0600
     33 H33        -5.3761    0.8909   51.9522 H       1  ZINC000912668252    0.0600
     34 H34        -7.1786    0.7400   49.4934 H       1  ZINC000912668252    0.0800
     35 H35        -6.8692   -0.5887   50.6368 H       1  ZINC000912668252    0.0900
     36 H36        -7.7657    2.9536   50.6799 H       1  ZINC000912668252    0.0900
     37 H37        -9.2985    2.6449   51.5305 H       1  ZINC000912668252    0.0800
     38 H38        -8.2880    2.7525   53.6556 H       1  ZINC000912668252    0.0600
     39 H39        -6.6626    2.4309   53.0052 H       1  ZINC000912668252    0.0700
     40 H40        -7.4240    4.0199   52.7524 H       1  ZINC000912668252    0.0700
     41 H41       -11.2479    0.9440   51.3810 H       1  ZINC000912668252    0.1400
     42 H42       -13.0248    1.7925   52.8528 H       1  ZINC000912668252    0.1400
     43 H43       -12.6402    1.9817   55.2736 H       1  ZINC000912668252    0.1300
     44 H44       -10.3173    2.2197   56.9630 H       1  ZINC000912668252    0.4200
     45 H45        -9.5971    1.2826   59.0157 H       1  ZINC000912668252    0.1100
     46 H46       -11.0841    0.3527   59.3199 H       1  ZINC000912668252    0.1100
     47 H47        -8.7482   -2.4496   62.8143 H       1  ZINC000912668252    0.1700
     48 H48        -8.4199   -1.5037   65.5922 H       1  ZINC000912668252    0.1400
     49 H49        -9.8566    2.4600   66.1869 H       1  ZINC000912668252    0.1400
     50 H50       -10.5194    2.6148   63.8301 H       1  ZINC000912668252    0.1400
     51 H51       -10.5037    1.0691   61.4095 H       1  ZINC000912668252    0.4300
     52 H52        -8.6758    0.4620   54.7777 H       1  ZINC000912668252    0.1400
@<TRIPOS>BOND
     1     1     2    1
     2     1    31    1
     3     1    32    1
     4     1    33    1
     5     2     3    1
     6     2    34    1
     7     2    35    1
     8     3     4    1
     9     3     6   am
    10     4     5    1
    11     4    36    1
    12     4    37    1
    13     5    38    1
    14     5    39    1
    15     5    40    1
    16     6     7    2
    17     6     8    1
    18     8    30   ar
    19     8     9   ar
    20     9    10   ar
    21     9    41    1
    22    10    11   ar
    23    10    42    1
    24    11    12   ar
    25    11    43    1
    26    12    13    1
    27    12    30   ar
    28    13    14   am
    29    13    44    1
    30    14    15    2
    31    14    16    1
    32    16    17    1
    33    16    45    1
    34    16    46    1
    35    17    18    1
    36    18    19    2
    37    18    20    1
    38    20    29    1
    39    20    21    2
    40    21    22    1
    41    21    47    1
    42    22    28   ar
    43    22    23   ar
    44    23    24   ar
    45    23    48    1
    46    24    25    1
    47    24    26   ar
    48    26    27   ar
    49    26    49    1
    50    27    28   ar
    51    27    50    1
    52    28    29    1
    53    29    51    1
    54    30    52    1
@<TRIPOS>SUBSTRUCTURE
     1 ZINC000912668252        1 TEMP              0 ****  ****    0 ROOT


##########                                Name:    ZINC000193795672
##########                DOCK_Rotatable_Bonds:                  10
##########                         Heavy_Atoms:                  23
##########                    Molecular_Weight:              332.47
##########                DOCK_Rotatable_Bonds:                  10
##########                       Formal_Charge:        -2.98023e-07
##########                     HBond_Acceptors:                   6
##########                        HBond_Donors:                   3
##########                         Heavy_Atoms:                  23
##########                          Grid_Score:          -37.585228
##########                     Grid_vdw_energy:          -37.873943
##########                      Grid_es_energy:            0.288714
##########           Internal_energy_repulsive:            4.864734

@<TRIPOS>MOLECULE
ZINC000193795672
 47 48 1 0 0
SMALL
USER_CHARGES


@<TRIPOS>ATOM
      1 C1         -1.3954    4.4196   47.5432 C.3     1  <0>        -0.1000
      2 C2         -2.2553    3.4857   48.3554 C.ar    1  <0>        -0.2000
      3 C3         -2.3466    3.6358   49.7326 C.ar    1  <0>        -0.0300
      4 C4         -3.1472    2.7576   50.4408 C.ar    1  <0>        -0.2400
      5 C5         -3.8298    1.7597   49.7531 C.ar    1  <0>         0.4000
      6 N6         -4.6378    0.8706   50.4523 N.pl3   1  <0>        -0.7300
      7 C7         -5.9370    1.3104   50.9667 C.3     1  <0>         0.1300
      8 C8         -7.0029    0.2700   50.6168 C.3     1  <0>        -0.1400
      9 C9         -8.0709    0.2458   51.7121 C.3     1  <0>         0.1400
     10 N10        -8.8315   -1.0033   51.6250 N.am    1  <0>        -0.7500
     11 C11        -9.8463   -1.2355   52.4809 C.2     1  <0>         0.7100
     12 O12       -10.1316   -0.4075   53.3244 O.2     1  <0>        -0.5900
     13 N13       -10.5450   -2.3853   52.4018 N.am    1  <0>        -0.7400
     14 C14       -11.6469   -2.6383   53.3333 C.3     1  <0>         0.1700
     15 H15       -11.3810   -2.2626   54.3213 H       1  <0>         0.0900
     16 C16       -12.9070   -1.9253   52.8385 C.3     1  <0>        -0.1700
     17 C17       -11.9110   -4.1433   53.4141 C.3     1  <0>        -0.0600
     18 C18       -12.5967   -4.4637   54.7173 C.2     1  <0>        -0.1700
     19 C19       -12.0449   -4.3450   55.9259 C.2     1  <0>        -0.1400
     20 C20       -12.8692   -4.6980   56.9805 C.2     1  <0>        -0.1300
     21 C21       -14.0902   -5.1032   56.6283 C.2     1  <0>        -0.2100
     22 S22       -14.2493   -5.0438   54.8777 S.3     1  <0>         0.0900
     23 N23        -3.7171    1.6494   48.4383 N.ar    1  <0>        -0.5400
     24 C24        -2.9648    2.4757   47.7367 C.ar    1  <0>         0.1500
     25 H25        -1.9882    5.2789   47.2295 H       1  <0>         0.0700
     26 H26        -0.5554    4.7593   48.1490 H       1  <0>         0.0600
     27 H27        -1.0209    3.8960   46.6636 H       1  <0>         0.0700
     28 H28        -1.8043    4.4203   50.2396 H       1  <0>         0.1300
     29 H29        -3.2407    2.8455   51.5132 H       1  <0>         0.1300
     30 H30        -4.3413   -0.0413   50.5995 H       1  <0>         0.4000
     31 H31        -5.8801    1.4221   52.0495 H       1  <0>         0.0700
     32 H32        -6.2013    2.2671   50.5161 H       1  <0>         0.0700
     33 H33        -7.4651    0.5297   49.6643 H       1  <0>         0.0800
     34 H34        -6.5392   -0.7134   50.5395 H       1  <0>         0.0800
     35 H35        -7.5914    0.3118   52.6886 H       1  <0>         0.0700
     36 H36        -8.7455    1.0918   51.5806 H       1  <0>         0.0700
     37 H37        -8.6046   -1.6633   50.9512 H       1  <0>         0.4000
     38 H38       -10.3180   -3.0453   51.7281 H       1  <0>         0.3900
     39 H39       -13.1729   -2.3011   51.8505 H       1  <0>         0.0600
     40 H40       -13.7269   -2.1136   53.5316 H       1  <0>         0.0700
     41 H41       -12.7188   -0.8532   52.7810 H       1  <0>         0.0700
     42 H42       -12.5494   -4.4452   52.5838 H       1  <0>         0.1000
     43 H43       -10.9649   -4.6816   53.3594 H       1  <0>         0.0800
     44 H44       -11.0319   -4.0000   56.0707 H       1  <0>         0.1400
     45 H45       -12.5478   -4.6493   58.0105 H       1  <0>         0.1400
     46 H46       -14.8641   -5.4164   57.3135 H       1  <0>         0.1600
     47 H47        -2.8968    2.3553   46.6656 H       1  <0>         0.1500
@<TRIPOS>BOND
     1     1     2    1
     2     1    25    1
     3     1    26    1
     4     1    27    1
     5     2    24   ar
     6     2     3   ar
     7     3     4   ar
     8     3    28    1
     9     4     5   ar
    10     4    29    1
    11     5     6    1
    12     5    23   ar
    13     6     7    1
    14     6    30    1
    15     7     8    1
    16     7    31    1
    17     7    32    1
    18     8     9    1
    19     8    33    1
    20     8    34    1
    21     9    10    1
    22     9    35    1
    23     9    36    1
    24    10    11   am
    25    10    37    1
    26    11    12    2
    27    11    13   am
    28    13    14    1
    29    13    38    1
    30    14    15    1
    31    14    16    1
    32    14    17    1
    33    16    39    1
    34    16    40    1
    35    16    41    1
    36    17    18    1
    37    17    42    1
    38    17    43    1
    39    18    22    1
    40    18    19    2
    41    19    20    1
    42    19    44    1
    43    20    21    2
    44    20    45    1
    45    21    22    1
    46    21    46    1
    47    23    24   ar
    48    24    47    1
@<TRIPOS>SUBSTRUCTURE
     1 <0>         1 TEMP              0 ****  ****    0 ROOT


##########                                Name:    ZINC000489986384
##########                DOCK_Rotatable_Bonds:                  11
##########                         Heavy_Atoms:                  31
##########                    Molecular_Weight:             415.492
##########                DOCK_Rotatable_Bonds:                  11
##########                       Formal_Charge:          -0.0499997
##########                     HBond_Acceptors:                   6
##########                        HBond_Donors:                   2
##########                         Heavy_Atoms:                  31
##########                          Grid_Score:          -37.563210
##########                     Grid_vdw_energy:          -35.684082
##########                      Grid_es_energy:           -1.879128
##########           Internal_energy_repulsive:           14.835478

@<TRIPOS>MOLECULE
ZINC000489986384
 56 59 1 0 0
SMALL
USER_CHARGES


@<TRIPOS>ATOM
      1 O1        -14.9365   -3.7368   60.7450 O.2     1  ZINC000489986384   -0.5000
      2 C2        -14.5512   -2.6586   60.3451 C.2     1  ZINC000489986384    0.4900
      3 C3        -14.1599   -2.4869   58.8999 C.3     1  ZINC000489986384    0.0900
      4 N4        -12.9942   -3.3244   58.6067 N.pl3   1  ZINC000489986384   -0.4700
      5 C5        -11.7567   -3.2457   59.2137 C.ar    1  ZINC000489986384    0.0700
      6 C6        -11.2170   -2.4416   60.2079 C.ar    1  ZINC000489986384   -0.1100
      7 C7         -9.9069   -2.6240   60.5978 C.ar    1  ZINC000489986384   -0.0900
      8 C8         -9.1263   -3.6045   60.0027 C.ar    1  ZINC000489986384   -0.1300
      9 C9         -9.6406   -4.4051   59.0221 C.ar    1  ZINC000489986384   -0.0600
     10 C10       -10.9656   -4.2391   58.6115 C.ar    1  ZINC000489986384    0.0500
     11 N11       -11.7445   -4.8589   57.6880 N.2     1  ZINC000489986384   -0.4600
     12 C12       -12.9322   -4.3278   57.6902 C.2     1  ZINC000489986384    0.2800
     13 C13       -14.0703   -4.7544   56.7991 C.3     1  ZINC000489986384    0.1400
     14 O14       -14.2528   -3.7869   55.7634 O.3     1  ZINC000489986384   -0.3000
     15 C15       -13.2527   -3.6630   54.8516 C.ar    1  ZINC000489986384    0.1300
     16 C16       -12.5146   -2.4903   54.7850 C.ar    1  ZINC000489986384   -0.2100
     17 C17       -11.4981   -2.3670   53.8575 C.ar    1  ZINC000489986384   -0.0800
     18 C18       -11.2165   -3.4111   52.9959 C.ar    1  ZINC000489986384   -0.1600
     19 C19       -11.9509   -4.5807   53.0601 C.ar    1  ZINC000489986384   -0.0800
     20 C20       -12.9644   -4.7113   53.9898 C.ar    1  ZINC000489986384   -0.1500
     21 N21       -14.4782   -1.6125   61.1917 N.am    1  ZINC000489986384   -0.7300
     22 C22       -14.8585   -1.7793   62.5966 C.3     1  ZINC000489986384    0.1300
     23 C23       -15.5115   -0.4923   63.1045 C.3     1  ZINC000489986384   -0.0600
     24 H24       -16.4438   -0.3209   62.5662 H       1  ZINC000489986384    0.0900
     25 C25       -15.8033   -0.6244   64.6005 C.3     1  ZINC000489986384    0.0800
     26 O26       -16.7416   -1.6814   64.8114 O.3     1  ZINC000489986384   -0.5700
     27 C27       -14.5785    0.6687   62.8752 C.ar    1  ZINC000489986384   -0.0700
     28 C28       -13.2105    0.4746   62.9162 C.ar    1  ZINC000489986384   -0.1100
     29 C29       -12.3546    1.5396   62.7060 C.ar    1  ZINC000489986384   -0.1200
     30 C30       -12.8668    2.7986   62.4544 C.ar    1  ZINC000489986384   -0.1200
     31 C31       -14.2348    2.9927   62.4125 C.ar    1  ZINC000489986384   -0.1200
     32 C32       -15.0907    1.9268   62.6185 C.ar    1  ZINC000489986384   -0.1100
     33 H33       -14.9911   -2.7846   58.2605 H       1  ZINC000489986384    0.1200
     34 H34       -13.9131   -1.4420   58.7119 H       1  ZINC000489986384    0.1200
     35 H35       -11.8202   -1.6765   60.6739 H       1  ZINC000489986384    0.1200
     36 H36        -9.4856   -1.9991   61.3712 H       1  ZINC000489986384    0.1300
     37 H37        -8.1016   -3.7361   60.3176 H       1  ZINC000489986384    0.1300
     38 H38        -9.0238   -5.1647   58.5650 H       1  ZINC000489986384    0.1300
     39 H39       -13.8407   -5.7231   56.3553 H       1  ZINC000489986384    0.0800
     40 H40       -14.9838   -4.8322   57.3886 H       1  ZINC000489986384    0.1000
     41 H41       -12.7347   -1.6743   55.4573 H       1  ZINC000489986384    0.1300
     42 H42       -10.9233   -1.4542   53.8052 H       1  ZINC000489986384    0.1300
     43 H43       -10.4216   -3.3125   52.2714 H       1  ZINC000489986384    0.1200
     44 H44       -11.7292   -5.3947   52.3858 H       1  ZINC000489986384    0.1300
     45 H45       -13.5377   -5.6252   54.0396 H       1  ZINC000489986384    0.1300
     46 H46       -14.1737   -0.7492   60.8709 H       1  ZINC000489986384    0.4000
     47 H47       -15.5646   -2.6048   62.6863 H       1  ZINC000489986384    0.0800
     48 H48       -13.9702   -1.9948   63.1904 H       1  ZINC000489986384    0.0800
     49 H49       -14.8787   -0.8480   65.1327 H       1  ZINC000489986384    0.0500
     50 H50       -16.2200    0.3111   64.9735 H       1  ZINC000489986384    0.0500
     51 H51       -16.9741   -1.8216   65.7395 H       1  ZINC000489986384    0.3800
     52 H52       -12.8104   -0.5091   63.1128 H       1  ZINC000489986384    0.1200
     53 H53       -11.2858    1.3880   62.7387 H       1  ZINC000489986384    0.1200
     54 H54       -12.1981    3.6308   62.2908 H       1  ZINC000489986384    0.1200
     55 H55       -14.6350    3.9764   62.2162 H       1  ZINC000489986384    0.1200
     56 H56       -16.1595    2.0784   62.5858 H       1  ZINC000489986384    0.1200
@<TRIPOS>BOND
     1     1     2    2
     2     2     3    1
     3     2    21   am
     4     3     4    1
     5     3    33    1
     6     3    34    1
     7     4    12    1
     8     4     5    1
     9     5    10   ar
    10     5     6   ar
    11     6     7   ar
    12     6    35    1
    13     7     8   ar
    14     7    36    1
    15     8     9   ar
    16     8    37    1
    17     9    10   ar
    18     9    38    1
    19    10    11    1
    20    11    12    2
    21    12    13    1
    22    13    14    1
    23    13    39    1
    24    13    40    1
    25    14    15    1
    26    15    20   ar
    27    15    16   ar
    28    16    17   ar
    29    16    41    1
    30    17    18   ar
    31    17    42    1
    32    18    19   ar
    33    18    43    1
    34    19    20   ar
    35    19    44    1
    36    20    45    1
    37    21    22    1
    38    21    46    1
    39    22    23    1
    40    22    47    1
    41    22    48    1
    42    23    24    1
    43    23    25    1
    44    23    27    1
    45    25    26    1
    46    25    49    1
    47    25    50    1
    48    26    51    1
    49    27    32   ar
    50    27    28   ar
    51    28    29   ar
    52    28    52    1
    53    29    30   ar
    54    29    53    1
    55    30    31   ar
    56    30    54    1
    57    31    32   ar
    58    31    55    1
    59    32    56    1
@<TRIPOS>SUBSTRUCTURE
     1 ZINC000489986384        1 TEMP              0 ****  ****    0 ROOT


##########                                Name:    ZINC000918875053
##########                DOCK_Rotatable_Bonds:                   6
##########                         Heavy_Atoms:                  26
##########                    Molecular_Weight:             359.357
##########                DOCK_Rotatable_Bonds:                   6
##########                       Formal_Charge:           0.0200003
##########                     HBond_Acceptors:                   8
##########                        HBond_Donors:                   0
##########                         Heavy_Atoms:                  26
##########                          Grid_Score:          -37.563187
##########                     Grid_vdw_energy:          -36.752136
##########                      Grid_es_energy:           -0.811051
##########           Internal_energy_repulsive:            6.779986

@<TRIPOS>MOLECULE
ZINC000918875053
 44 47 1 0 0
SMALL
USER_CHARGES


@<TRIPOS>ATOM
      1 C1        -12.2562   -1.7932   51.5128 C.3     1  ZINC000918875053   -0.1700
      2 C2        -11.2555   -1.9218   52.6630 C.3     1  ZINC000918875053    0.1900
      3 H3        -11.6132   -1.3527   53.5211 H       1  ZINC000918875053    0.1400
      4 O4        -11.1192   -3.3195   53.0321 O.3     1  ZINC000918875053   -0.3400
      5 C5        -12.1587   -3.8871   53.6639 C.2     1  ZINC000918875053    0.4800
      6 O6        -12.6955   -4.8603   53.1901 O.2     1  ZINC000918875053   -0.4900
      7 C7        -12.6562   -3.3103   54.9642 C.3     1  ZINC000918875053   -0.0900
      8 H8        -13.2383   -2.4055   54.7899 H       1  ZINC000918875053    0.1400
      9 C9        -13.4795   -4.3543   55.7537 C.3     1  ZINC000918875053   -0.1400
     10 C10       -13.1151   -4.0980   57.1994 C.2     1  ZINC000918875053    0.5300
     11 O11       -13.7399   -4.5049   58.1560 O.2     1  ZINC000918875053   -0.5000
     12 N12       -11.9978   -3.3539   57.2696 N.am    1  ZINC000918875053   -0.5800
     13 C13       -11.4011   -2.9352   58.4654 C.ar    1  ZINC000918875053    0.1000
     14 C14       -11.7794   -1.7339   59.0480 C.ar    1  ZINC000918875053   -0.0800
     15 C15       -11.1893   -1.3234   60.2281 C.ar    1  ZINC000918875053   -0.1200
     16 C16       -10.2223   -2.1073   60.8294 C.ar    1  ZINC000918875053   -0.0800
     17 C17        -9.8418   -3.3055   60.2526 C.ar    1  ZINC000918875053   -0.1500
     18 C18       -10.4321   -3.7253   59.0749 C.ar    1  ZINC000918875053    0.1100
     19 F19       -10.0609   -4.8958   58.5117 F       1  ZINC000918875053   -0.1300
     20 C20       -11.4836   -3.0355   55.9317 C.3     1  ZINC000918875053    0.1200
     21 C21        -9.9169   -1.3847   52.2266 C.2     1  ZINC000918875053    0.1800
     22 N22        -9.4808   -0.1573   52.3779 N.2     1  ZINC000918875053   -0.4600
     23 C23        -8.2474   -0.1425   51.8419 C.2     1  ZINC000918875053    0.2100
     24 C24        -7.3213    1.0440   51.7677 C.3     1  ZINC000918875053   -0.0900
     25 C25        -7.9334    2.3957   51.3948 C.3     1  ZINC000918875053   -0.1600
     26 C26        -7.4800    2.1316   52.8320 C.3     1  ZINC000918875053   -0.1500
     27 N27        -8.0008   -1.3394   51.4001 N.2     1  ZINC000918875053   -0.3700
     28 O28        -8.9449   -2.0697   51.6165 O.3     1  ZINC000918875053    0.1000
     29 H29       -13.2245   -2.1818   51.8284 H       1  ZINC000918875053    0.0900
     30 H30       -12.3584   -0.7441   51.2357 H       1  ZINC000918875053    0.0900
     31 H31       -11.8986   -2.3624   50.6547 H       1  ZINC000918875053    0.0800
     32 H32       -14.5464   -4.1975   55.5956 H       1  ZINC000918875053    0.1300
     33 H33       -13.1941   -5.3651   55.4619 H       1  ZINC000918875053    0.1100
     34 H34       -12.5342   -1.1200   58.5792 H       1  ZINC000918875053    0.1400
     35 H35       -11.4838   -0.3884   60.6814 H       1  ZINC000918875053    0.1400
     36 H36        -9.7626   -1.7832   61.7513 H       1  ZINC000918875053    0.1400
     37 H37        -9.0860   -3.9156   60.7248 H       1  ZINC000918875053    0.1400
     38 H38       -10.6373   -3.6785   55.6899 H       1  ZINC000918875053    0.1000
     39 H39       -11.1887   -1.9875   55.8805 H       1  ZINC000918875053    0.1000
     40 H40        -6.3134    0.8320   51.4110 H       1  ZINC000918875053    0.1400
     41 H41        -7.3283    3.0733   50.7925 H       1  ZINC000918875053    0.1100
     42 H42        -9.0060    2.4268   51.2032 H       1  ZINC000918875053    0.1000
     43 H43        -8.2541    1.9889   53.5859 H       1  ZINC000918875053    0.1000
     44 H44        -6.5764    2.6354   53.1752 H       1  ZINC000918875053    0.1100
@<TRIPOS>BOND
     1     1     2    1
     2     1    29    1
     3     1    30    1
     4     1    31    1
     5     2     3    1
     6     2     4    1
     7     2    21    1
     8     4     5    1
     9     5     6    2
    10     5     7    1
    11     7     8    1
    12     7    20    1
    13     7     9    1
    14     9    10    1
    15     9    32    1
    16     9    33    1
    17    10    11    2
    18    10    12   am
    19    12    13    1
    20    12    20    1
    21    13    18   ar
    22    13    14   ar
    23    14    15   ar
    24    14    34    1
    25    15    16   ar
    26    15    35    1
    27    16    17   ar
    28    16    36    1
    29    17    18   ar
    30    17    37    1
    31    18    19    1
    32    20    38    1
    33    20    39    1
    34    21    28    1
    35    21    22    2
    36    22    23    1
    37    23    24    1
    38    23    27    2
    39    24    26    1
    40    24    25    1
    41    24    40    1
    42    25    26    1
    43    25    41    1
    44    25    42    1
    45    26    43    1
    46    26    44    1
    47    27    28    1
@<TRIPOS>SUBSTRUCTURE
     1 ZINC000918875053        1 TEMP              0 ****  ****    0 ROOT


##########                                Name:    ZINC000269287897
##########                DOCK_Rotatable_Bonds:                   8
##########                         Heavy_Atoms:                  23
##########                    Molecular_Weight:             385.301
##########                DOCK_Rotatable_Bonds:                   8
##########                       Formal_Charge:           0.0300002
##########                     HBond_Acceptors:                   5
##########                        HBond_Donors:                   1
##########                         Heavy_Atoms:                  23
##########                          Grid_Score:          -37.531303
##########                     Grid_vdw_energy:          -36.400578
##########                      Grid_es_energy:           -1.130724
##########           Internal_energy_repulsive:            9.942311

@<TRIPOS>MOLECULE
ZINC000269287897
 48 49 1 0 0
SMALL
USER_CHARGES


@<TRIPOS>ATOM
      1 C1         -7.5362   -0.7844   51.4250 C.3     1  ZINC000269287897    0.0300
      2 O2         -8.7878   -1.4720   51.3744 O.3     1  ZINC000269287897   -0.3800
      3 C3         -9.7868   -0.9248   52.2372 C.3     1  ZINC000269287897    0.0600
      4 C4        -11.0341   -1.8101   52.1991 C.3     1  ZINC000269287897    0.0600
      5 O5        -10.6949   -3.1299   52.6292 O.3     1  ZINC000269287897   -0.3800
      6 C6        -11.8249   -3.9619   52.8986 C.3     1  ZINC000269287897    0.0700
      7 C7        -12.5366   -3.4635   54.1580 C.3     1  ZINC000269287897   -0.1000
      8 H8        -13.0913   -2.5477   53.9541 H       1  ZINC000269287897    0.1000
      9 C9        -13.4673   -4.5594   54.7414 C.3     1  ZINC000269287897   -0.1200
     10 C10       -13.5309   -4.1968   56.2402 C.3     1  ZINC000269287897    0.1000
     11 N11       -12.3398   -3.3907   56.5451 N.am    1  ZINC000269287897   -0.6300
     12 C12       -12.0363   -2.8612   57.7468 C.2     1  ZINC000269287897    0.7300
     13 O13       -12.7785   -3.0372   58.6937 O.2     1  ZINC000269287897   -0.5600
     14 N14       -10.9100   -2.1368   57.8989 N.am    1  ZINC000269287897   -0.6900
     15 C15       -10.5947   -1.5869   59.1471 C.ar    1  ZINC000269287897    0.1800
     16 C16       -10.9724   -0.2858   59.4495 C.ar    1  ZINC000269287897   -0.0600
     17 C17       -11.7228    0.5370   58.4341 C.3     1  ZINC000269287897   -0.1000
     18 C18       -10.6603    0.2539   60.6823 C.ar    1  ZINC000269287897   -0.0900
     19 C19        -9.9724   -0.5000   61.6149 C.ar    1  ZINC000269287897   -0.0800
     20 C20        -9.6337    0.0923   62.9585 C.3     1  ZINC000269287897   -0.1100
     21 C21        -9.5947   -1.7969   61.3176 C.ar    1  ZINC000269287897   -0.0900
     22 C22        -9.9080   -2.3444   60.0883 C.ar    1  ZINC000269287897   -0.1000
     23 Br23       -9.3918   -4.1177   59.6824 Br      1  ZINC000269287897   -0.0500
     24 C24       -11.5317   -3.2573   55.3187 C.3     1  ZINC000269287897    0.1400
     25 H25        -7.6806    0.2553   51.1311 H       1  ZINC000269287897    0.0400
     26 H26        -7.1409   -0.8234   52.4400 H       1  ZINC000269287897    0.0400
     27 H27        -6.8322   -1.2605   50.7424 H       1  ZINC000269287897    0.0900
     28 H28        -9.4029   -0.8819   53.2564 H       1  ZINC000269287897    0.0600
     29 H29       -10.0444    0.0803   51.9033 H       1  ZINC000269287897    0.0600
     30 H30       -11.7940   -1.3960   52.8619 H       1  ZINC000269287897    0.0700
     31 H31       -11.4217   -1.8481   51.1811 H       1  ZINC000269287897    0.0600
     32 H32       -12.5129   -3.9251   52.0539 H       1  ZINC000269287897    0.0600
     33 H33       -11.4920   -4.9885   53.0517 H       1  ZINC000269287897    0.0500
     34 H34       -14.4575   -4.5051   54.2892 H       1  ZINC000269287897    0.0900
     35 H35       -13.0322   -5.5491   54.6022 H       1  ZINC000269287897    0.0800
     36 H36       -14.4321   -3.6184   56.4437 H       1  ZINC000269287897    0.0700
     37 H37       -13.5274   -5.1056   56.8419 H       1  ZINC000269287897    0.0700
     38 H38       -10.3179   -1.9964   57.1435 H       1  ZINC000269287897    0.4100
     39 H39       -12.7898    0.5006   58.6539 H       1  ZINC000269287897    0.0900
     40 H40       -11.3779    1.5700   58.4771 H       1  ZINC000269287897    0.0600
     41 H41       -11.5434    0.1352   57.4368 H       1  ZINC000269287897    0.0600
     42 H42       -10.9538    1.2663   60.9178 H       1  ZINC000269287897    0.1300
     43 H43       -10.4430   -0.1113   63.6598 H       1  ZINC000269287897    0.0700
     44 H44        -8.7107   -0.3531   63.3298 H       1  ZINC000269287897    0.0700
     45 H45        -9.5024    1.1696   62.8580 H       1  ZINC000269287897    0.0700
     46 H46        -9.0573   -2.3833   62.0481 H       1  ZINC000269287897    0.1400
     47 H47       -10.7571   -4.0237   55.2897 H       1  ZINC000269287897    0.0700
     48 H48       -11.0860   -2.2641   55.2642 H       1  ZINC000269287897    0.0900
@<TRIPOS>BOND
     1     1     2    1
     2     1    25    1
     3     1    26    1
     4     1    27    1
     5     2     3    1
     6     3     4    1
     7     3    28    1
     8     3    29    1
     9     4     5    1
    10     4    30    1
    11     4    31    1
    12     5     6    1
    13     6     7    1
    14     6    32    1
    15     6    33    1
    16     7     8    1
    17     7    24    1
    18     7     9    1
    19     9    10    1
    20     9    34    1
    21     9    35    1
    22    10    11    1
    23    10    36    1
    24    10    37    1
    25    11    12   am
    26    11    24    1
    27    12    13    2
    28    12    14   am
    29    14    15    1
    30    14    38    1
    31    15    22   ar
    32    15    16   ar
    33    16    17    1
    34    16    18   ar
    35    17    39    1
    36    17    40    1
    37    17    41    1
    38    18    19   ar
    39    18    42    1
    40    19    20    1
    41    19    21   ar
    42    20    43    1
    43    20    44    1
    44    20    45    1
    45    21    22   ar
    46    21    46    1
    47    22    23    1
    48    24    47    1
    49    24    48    1
@<TRIPOS>SUBSTRUCTURE
     1 ZINC000269287897        1 TEMP              0 ****  ****    0 ROOT


##########                                Name:    ZINC000013809319
##########                DOCK_Rotatable_Bonds:                  10
##########                         Heavy_Atoms:                  30
##########                    Molecular_Weight:             407.469
##########                DOCK_Rotatable_Bonds:                  10
##########                       Formal_Charge:         -0.00999978
##########                     HBond_Acceptors:                   7
##########                        HBond_Donors:                   1
##########                         Heavy_Atoms:                  30
##########                          Grid_Score:          -37.525326
##########                     Grid_vdw_energy:          -36.157616
##########                      Grid_es_energy:           -1.367709
##########           Internal_energy_repulsive:           17.094673

@<TRIPOS>MOLECULE
ZINC000013809319
 55 57 1 0 0
SMALL
USER_CHARGES


@<TRIPOS>ATOM
      1 C1        -15.0159   -1.9323   49.2634 C.3     1  ZINC000013809319   -0.1500
      2 C2        -13.9967   -1.9182   50.4046 C.3     1  ZINC000013809319    0.0500
      3 O3        -14.3884   -2.8607   51.4047 O.3     1  ZINC000013809319   -0.3100
      4 C4        -13.6882   -2.8519   52.5680 C.ar    1  ZINC000013809319    0.1500
      5 C5        -12.3133   -2.6532   52.5479 C.ar    1  ZINC000013809319   -0.2200
      6 C6        -11.5997   -2.6431   53.7266 C.ar    1  ZINC000013809319   -0.0300
      7 C7        -12.2597   -2.8328   54.9417 C.ar    1  ZINC000013809319   -0.1100
      8 C8        -11.4966   -2.8221   56.2098 C.2     1  ZINC000013809319    0.2300
      9 C9        -10.8183   -1.6811   56.6067 C.2     1  ZINC000013809319   -0.2900
     10 C10       -10.1066   -1.7142   57.8184 C.2     1  ZINC000013809319    0.5300
     11 O11        -9.4950   -0.7326   58.2076 O.2     1  ZINC000013809319   -0.5400
     12 N12       -10.1131   -2.8526   58.5430 N.am    1  ZINC000013809319   -0.5100
     13 C13        -9.3800   -2.9144   59.8099 C.3     1  ZINC000013809319    0.0700
     14 C14       -10.0874   -2.0733   60.8411 C.2     1  ZINC000013809319    0.5000
     15 O15       -11.2981   -2.0034   60.8397 O.2     1  ZINC000013809319   -0.5200
     16 N16        -9.3744   -1.3989   61.7648 N.am    1  ZINC000013809319   -0.7200
     17 C17       -10.0621   -0.5826   62.7684 C.3     1  ZINC000013809319    0.1300
     18 C18        -9.1954   -0.4826   64.0253 C.3     1  ZINC000013809319   -0.0800
     19 C19        -9.7027    0.6369   64.8973 C.ar    1  ZINC000013809319   -0.1200
     20 C20       -11.0253    1.0277   64.8209 C.ar    1  ZINC000013809319   -0.0800
     21 C21       -11.4912    2.0554   65.6204 C.ar    1  ZINC000013809319   -0.1500
     22 C22       -10.6351    2.6937   66.4983 C.ar    1  ZINC000013809319   -0.0800
     23 C23        -9.3112    2.3064   66.5788 C.ar    1  ZINC000013809319   -0.2100
     24 C24        -8.8427    1.2724   65.7817 C.ar    1  ZINC000013809319    0.1300
     25 O25        -7.5411    0.8895   65.8590 O.3     1  ZINC000013809319   -0.3100
     26 C26        -6.7182    1.5753   66.8048 C.3     1  ZINC000013809319    0.0300
     27 C27       -10.7913   -3.9332   58.1070 C.2     1  ZINC000013809319    0.3900
     28 N28       -11.4610   -3.9179   56.9880 N.2     1  ZINC000013809319   -0.5300
     29 C29       -13.6411   -3.0321   54.9582 C.ar    1  ZINC000013809319   -0.0500
     30 C30       -14.3491   -3.0357   53.7762 C.ar    1  ZINC000013809319   -0.1600
     31 H31       -15.0576   -2.9298   48.8260 H       1  ZINC000013809319    0.0700
     32 H32       -15.9987   -1.6639   49.6507 H       1  ZINC000013809319    0.0700
     33 H33       -14.7171   -1.2133   48.5006 H       1  ZINC000013809319    0.0800
     34 H34       -13.0138   -2.1865   50.0173 H       1  ZINC000013809319    0.0600
     35 H35       -13.9549   -0.9206   50.8420 H       1  ZINC000013809319    0.0600
     36 H36       -11.8032   -2.5068   51.6072 H       1  ZINC000013809319    0.1300
     37 H37       -10.5308   -2.4890   53.7101 H       1  ZINC000013809319    0.1400
     38 H38       -10.8357   -0.7879   55.9996 H       1  ZINC000013809319    0.1600
     39 H39        -9.3344   -3.9479   60.1532 H       1  ZINC000013809319    0.1300
     40 H40        -8.3686   -2.5351   59.6633 H       1  ZINC000013809319    0.1300
     41 H41        -8.4059   -1.4539   61.7652 H       1  ZINC000013809319    0.4000
     42 H42       -10.2368    0.4156   62.3671 H       1  ZINC000013809319    0.0700
     43 H43       -11.0163   -1.0451   63.0209 H       1  ZINC000013809319    0.0700
     44 H44        -9.2435   -1.4222   64.5756 H       1  ZINC000013809319    0.0800
     45 H45        -8.1629   -0.2813   63.7397 H       1  ZINC000013809319    0.0800
     46 H46       -11.6960    0.5305   64.1359 H       1  ZINC000013809319    0.1300
     47 H47       -12.5256    2.3599   65.5587 H       1  ZINC000013809319    0.1300
     48 H48       -11.0012    3.4963   67.1214 H       1  ZINC000013809319    0.1300
     49 H49        -8.6428    2.8057   67.2646 H       1  ZINC000013809319    0.1300
     50 H50        -7.1241    1.4373   67.8070 H       1  ZINC000013809319    0.0600
     51 H51        -5.7058    1.1734   66.7643 H       1  ZINC000013809319    0.1000
     52 H52        -6.6970    2.6382   66.5646 H       1  ZINC000013809319    0.0600
     53 H53       -10.7832   -4.8342   58.7024 H       1  ZINC000013809319    0.2000
     54 H54       -14.1549   -3.1791   55.8967 H       1  ZINC000013809319    0.1400
     55 H55       -15.4180   -3.1895   53.7882 H       1  ZINC000013809319    0.1400
@<TRIPOS>BOND
     1     1     2    1
     2     1    31    1
     3     1    32    1
     4     1    33    1
     5     2     3    1
     6     2    34    1
     7     2    35    1
     8     3     4    1
     9     4    30   ar
    10     4     5   ar
    11     5     6   ar
    12     5    36    1
    13     6     7   ar
    14     6    37    1
    15     7     8    1
    16     7    29   ar
    17     8    28    1
    18     8     9    2
    19     9    10    1
    20     9    38    1
    21    10    11    2
    22    10    12   am
    23    12    13    1
    24    12    27    1
    25    13    14    1
    26    13    39    1
    27    13    40    1
    28    14    15    2
    29    14    16   am
    30    16    17    1
    31    16    41    1
    32    17    18    1
    33    17    42    1
    34    17    43    1
    35    18    19    1
    36    18    44    1
    37    18    45    1
    38    19    24   ar
    39    19    20   ar
    40    20    21   ar
    41    20    46    1
    42    21    22   ar
    43    21    47    1
    44    22    23   ar
    45    22    48    1
    46    23    24   ar
    47    23    49    1
    48    24    25    1
    49    25    26    1
    50    26    50    1
    51    26    51    1
    52    26    52    1
    53    27    28    2
    54    27    53    1
    55    29    30   ar
    56    29    54    1
    57    30    55    1
@<TRIPOS>SUBSTRUCTURE
     1 ZINC000013809319        1 TEMP              0 ****  ****    0 ROOT


##########                                Name:    ZINC000533037883
##########                DOCK_Rotatable_Bonds:                   7
##########                         Heavy_Atoms:                  27
##########                    Molecular_Weight:             368.479
##########                DOCK_Rotatable_Bonds:                   7
##########                       Formal_Charge:          0.00999947
##########                     HBond_Acceptors:                   6
##########                        HBond_Donors:                   1
##########                         Heavy_Atoms:                  27
##########                          Grid_Score:          -37.503456
##########                     Grid_vdw_energy:          -38.069962
##########                      Grid_es_energy:            0.566506
##########           Internal_energy_repulsive:           15.295005

@<TRIPOS>MOLECULE
ZINC000533037883
 55 58 1 0 0
SMALL
USER_CHARGES


@<TRIPOS>ATOM
      1 O1         -3.8027    2.4328   52.2965 O.2     1  ZINC000533037883   -0.5900
      2 C2         -3.8464    2.4807   51.0822 C.2     1  ZINC000533037883    0.7100
      3 N3         -5.0245    2.3353   50.4440 N.am    1  ZINC000533037883   -0.7500
      4 C4         -6.2516    2.1133   51.2129 C.3     1  ZINC000533037883    0.1400
      5 C5         -6.9529    0.8534   50.7016 C.3     1  ZINC000533037883   -0.0500
      6 C6         -8.1426    0.5509   51.5758 C.2     1  ZINC000533037883   -0.2300
      7 C7         -8.6991   -0.6673   51.7693 C.2     1  ZINC000533037883    0.0600
      8 N8         -9.7399   -0.5140   52.6189 N.pl3   1  ZINC000533037883   -0.3200
      9 C9        -10.5852   -1.5326   53.0805 C.ar    1  ZINC000533037883    0.1600
     10 C10       -11.5881   -1.2428   53.9959 C.ar    1  ZINC000533037883   -0.1400
     11 C11       -12.4193   -2.2486   54.4488 C.ar    1  ZINC000533037883   -0.0900
     12 C12       -12.2531   -3.5431   53.9920 C.ar    1  ZINC000533037883   -0.1300
     13 C13       -11.2552   -3.8347   53.0804 C.ar    1  ZINC000533037883   -0.0900
     14 C14       -10.4249   -2.8321   52.6190 C.ar    1  ZINC000533037883   -0.1200
     15 N15        -9.8236    0.8431   52.9565 N.2     1  ZINC000533037883   -0.2900
     16 C16        -8.8632    1.4792   52.3354 C.2     1  ZINC000533037883    0.0700
     17 N17        -2.7175    2.6849   50.3749 N.am    1  ZINC000533037883   -0.6300
     18 C18        -1.4258    2.8453   51.0564 C.3     1  ZINC000533037883    0.1100
     19 C19        -0.4295    1.8417   50.4671 C.3     1  ZINC000533037883   -0.1400
     20 C20        -0.3660    2.0237   48.9489 C.3     1  ZINC000533037883   -0.1100
     21 C21        -1.7440    1.7491   48.3424 C.3     1  ZINC000533037883   -0.0900
     22 H22        -2.0569    0.7358   48.5940 H       1  ZINC000533037883    0.0800
     23 C23        -1.6714    1.8984   46.8214 C.3     1  ZINC000533037883   -0.1200
     24 H24        -1.2137    2.8491   46.5481 H       1  ZINC000533037883    0.0900
     25 C25        -0.8996    0.7102   46.1857 C.3     1  ZINC000533037883   -0.1500
     26 C26        -1.5453    0.6595   44.7781 C.3     1  ZINC000533037883    0.0500
     27 O27        -2.9280    0.9873   44.9877 O.3     1  ZINC000533037883   -0.3900
     28 C28        -3.0729    1.7613   46.1885 C.3     1  ZINC000533037883    0.0500
     29 C29        -2.7542    2.7455   48.9073 C.3     1  ZINC000533037883    0.1300
     30 H30        -5.0599    2.3774   49.4756 H       1  ZINC000533037883    0.4000
     31 H31        -6.0025    1.9883   52.2666 H       1  ZINC000533037883    0.0700
     32 H32        -6.9141    2.9710   51.0955 H       1  ZINC000533037883    0.0700
     33 H33        -7.2869    1.0140   49.6765 H       1  ZINC000533037883    0.0800
     34 H34        -6.2583    0.0139   50.7302 H       1  ZINC000533037883    0.0800
     35 H35        -8.3711   -1.5953   51.3248 H       1  ZINC000533037883    0.1800
     36 H36       -11.7179   -0.2321   54.3536 H       1  ZINC000533037883    0.1300
     37 H37       -13.1997   -2.0237   55.1609 H       1  ZINC000533037883    0.1300
     38 H38       -12.9039   -4.3279   54.3483 H       1  ZINC000533037883    0.1300
     39 H39       -11.1278   -4.8467   52.7254 H       1  ZINC000533037883    0.1300
     40 H40        -9.6458   -3.0605   51.9067 H       1  ZINC000533037883    0.1400
     41 H41        -8.6648    2.5392   52.3941 H       1  ZINC000533037883    0.1900
     42 H42        -1.0559    3.8593   50.9047 H       1  ZINC000533037883    0.0700
     43 H43        -1.5490    2.6547   52.1226 H       1  ZINC000533037883    0.0800
     44 H44         0.5576    2.0147   50.8958 H       1  ZINC000533037883    0.0800
     45 H45        -0.7547    0.8275   50.6987 H       1  ZINC000533037883    0.0700
     46 H46        -0.0647    3.0455   48.7179 H       1  ZINC000533037883    0.0700
     47 H47         0.3605    1.3275   48.5298 H       1  ZINC000533037883    0.0700
     48 H48         0.1672    0.9244   46.1209 H       1  ZINC000533037883    0.0800
     49 H49        -1.0802   -0.2142   46.7343 H       1  ZINC000533037883    0.0800
     50 H50        -1.0781    1.3928   44.1208 H       1  ZINC000533037883    0.0600
     51 H51        -1.4537   -0.3412   44.3556 H       1  ZINC000533037883    0.0900
     52 H52        -3.7399    1.2480   46.8811 H       1  ZINC000533037883    0.0700
     53 H53        -3.4742    2.7457   45.9477 H       1  ZINC000533037883    0.0700
     54 H54        -3.7540    2.4917   48.5548 H       1  ZINC000533037883    0.1000
     55 H55        -2.4947    3.7530   48.5824 H       1  ZINC000533037883    0.0700
@<TRIPOS>BOND
     1     1     2    2
     2     2     3   am
     3     2    17   am
     4     3     4    1
     5     3    30    1
     6     4     5    1
     7     4    31    1
     8     4    32    1
     9     5     6    1
    10     5    33    1
    11     5    34    1
    12     6    16    1
    13     6     7    2
    14     7     8    1
    15     7    35    1
    16     8     9    1
    17     8    15    1
    18     9    14   ar
    19     9    10   ar
    20    10    11   ar
    21    10    36    1
    22    11    12   ar
    23    11    37    1
    24    12    13   ar
    25    12    38    1
    26    13    14   ar
    27    13    39    1
    28    14    40    1
    29    15    16    2
    30    16    41    1
    31    17    29    1
    32    17    18    1
    33    18    19    1
    34    18    42    1
    35    18    43    1
    36    19    20    1
    37    19    44    1
    38    19    45    1
    39    20    21    1
    40    20    46    1
    41    20    47    1
    42    21    22    1
    43    21    23    1
    44    21    29    1
    45    23    24    1
    46    23    28    1
    47    23    25    1
    48    25    26    1
    49    25    48    1
    50    25    49    1
    51    26    27    1
    52    26    50    1
    53    26    51    1
    54    27    28    1
    55    28    52    1
    56    28    53    1
    57    29    54    1
    58    29    55    1
@<TRIPOS>SUBSTRUCTURE
     1 ZINC000533037883        1 TEMP              0 ****  ****    0 ROOT


##########                                Name:    ZINC000046390957
##########                DOCK_Rotatable_Bonds:                   9
##########                         Heavy_Atoms:                  29
##########                    Molecular_Weight:             408.521
##########                DOCK_Rotatable_Bonds:                   9
##########                       Formal_Charge:           0.0100005
##########                     HBond_Acceptors:                   6
##########                        HBond_Donors:                   1
##########                         Heavy_Atoms:                  29
##########                          Grid_Score:          -37.456337
##########                     Grid_vdw_energy:          -36.505177
##########                      Grid_es_energy:           -0.951161
##########           Internal_energy_repulsive:           12.045413

@<TRIPOS>MOLECULE
ZINC000046390957
 53 55 1 0 0
SMALL
USER_CHARGES


@<TRIPOS>ATOM
      1 C1        -13.1171    0.7648   60.2444 C.3     1  ZINC000046390957   -0.1100
      2 C2        -11.9031    0.0941   60.8340 C.ar    1  ZINC000046390957   -0.0600
      3 C3        -11.1804    0.7233   61.8287 C.ar    1  ZINC000046390957   -0.1200
      4 C4        -10.0661    0.1088   62.3698 C.ar    1  ZINC000046390957   -0.1100
      5 C5         -9.6720   -1.1372   61.9177 C.ar    1  ZINC000046390957   -0.1200
      6 C6        -10.3907   -1.7719   60.9236 C.ar    1  ZINC000046390957   -0.0800
      7 C7         -9.9608   -3.1300   60.4319 C.3     1  ZINC000046390957   -0.1100
      8 C8        -11.5133   -1.1597   60.3818 C.ar    1  ZINC000046390957    0.1300
      9 N9        -12.2439   -1.8003   59.3749 N.am    1  ZINC000046390957   -0.6800
     10 C10       -13.2632   -2.6200   59.6995 C.2     1  ZINC000046390957    0.5200
     11 O11       -13.5472   -2.8027   60.8645 O.2     1  ZINC000046390957   -0.4900
     12 C12       -14.0501   -3.3099   58.6151 C.3     1  ZINC000046390957    0.0700
     13 H13       -14.3032   -4.3202   58.9366 H       1  ZINC000046390957    0.1100
     14 C14       -15.3346   -2.5257   58.3396 C.3     1  ZINC000046390957   -0.1700
     15 O15       -13.2522   -3.3731   57.4036 O.3     1  ZINC000046390957   -0.3300
     16 C16       -12.8533   -4.5892   56.9994 C.2     1  ZINC000046390957    0.4700
     17 O17       -11.8540   -5.0832   57.4657 O.2     1  ZINC000046390957   -0.4800
     18 C18       -13.6517   -5.3388   55.9641 C.3     1  ZINC000046390957   -0.0300
     19 C19       -13.6594   -4.5593   54.6744 C.2     1  ZINC000046390957    0.0800
     20 C20       -14.7855   -4.1363   54.0922 C.2     1  ZINC000046390957   -0.2500
     21 S21       -14.3441   -3.2748   52.6199 S.3     1  ZINC000046390957    0.1300
     22 C22       -12.6893   -3.5691   52.9337 C.2     1  ZINC000046390957    0.0600
     23 C23       -11.5508   -3.1123   52.0584 C.3     1  ZINC000046390957    0.0000
     24 C24       -10.9587   -1.8472   52.6242 C.ar    1  ZINC000046390957   -0.0900
     25 C25       -11.7370   -1.0045   53.3955 C.ar    1  ZINC000046390957   -0.0900
     26 C26       -11.1939    0.1560   53.9145 C.ar    1  ZINC000046390957   -0.1200
     27 C27        -9.8724    0.4734   53.6624 C.ar    1  ZINC000046390957   -0.1200
     28 C28        -9.0937   -0.3697   52.8919 C.ar    1  ZINC000046390957   -0.1200
     29 C29        -9.6357   -1.5323   52.3765 C.ar    1  ZINC000046390957   -0.1100
     30 N30       -12.5562   -4.2340   54.0314 N.2     1  ZINC000046390957   -0.4500
     31 H31       -13.9816    0.5760   60.8809 H       1  ZINC000046390957    0.0800
     32 H32       -12.9425    1.8387   60.1779 H       1  ZINC000046390957    0.0700
     33 H33       -13.3052    0.3649   59.2480 H       1  ZINC000046390957    0.0600
     34 H34       -11.4857    1.6964   62.1839 H       1  ZINC000046390957    0.1300
     35 H35        -9.5022    0.6031   63.1469 H       1  ZINC000046390957    0.1300
     36 H36        -8.8010   -1.6144   62.3421 H       1  ZINC000046390957    0.1300
     37 H37       -10.4491   -3.9027   61.0256 H       1  ZINC000046390957    0.0700
     38 H38       -10.2429   -3.2434   59.3851 H       1  ZINC000046390957    0.0600
     39 H39        -8.8794   -3.2260   60.5291 H       1  ZINC000046390957    0.0700
     40 H40       -12.0168   -1.6543   58.4432 H       1  ZINC000046390957    0.4100
     41 H41       -15.9335   -2.4783   59.2491 H       1  ZINC000046390957    0.0800
     42 H42       -15.0816   -1.5154   58.0180 H       1  ZINC000046390957    0.0800
     43 H43       -15.9038   -3.0247   57.5552 H       1  ZINC000046390957    0.0800
     44 H44       -13.2006   -6.3166   55.7952 H       1  ZINC000046390957    0.1200
     45 H45       -14.6749   -5.4670   56.3173 H       1  ZINC000046390957    0.1300
     46 H46       -15.7888   -4.2946   54.4592 H       1  ZINC000046390957    0.1800
     47 H47       -10.7855   -3.8877   52.0235 H       1  ZINC000046390957    0.1000
     48 H48       -11.9209   -2.9214   51.0511 H       1  ZINC000046390957    0.1000
     49 H49       -12.7696   -1.2527   53.5924 H       1  ZINC000046390957    0.1200
     50 H50       -11.8022    0.8146   54.5165 H       1  ZINC000046390957    0.1200
     51 H51        -9.4483    1.3805   54.0673 H       1  ZINC000046390957    0.1200
     52 H52        -8.0613   -0.1215   52.6947 H       1  ZINC000046390957    0.1200
     53 H53        -9.0274   -2.1910   51.7744 H       1  ZINC000046390957    0.1200
@<TRIPOS>BOND
     1     1     2    1
     2     1    31    1
     3     1    32    1
     4     1    33    1
     5     2     8   ar
     6     2     3   ar
     7     3     4   ar
     8     3    34    1
     9     4     5   ar
    10     4    35    1
    11     5     6   ar
    12     5    36    1
    13     6     7    1
    14     6     8   ar
    15     7    37    1
    16     7    38    1
    17     7    39    1
    18     8     9    1
    19     9    10   am
    20     9    40    1
    21    10    11    2
    22    10    12    1
    23    12    13    1
    24    12    14    1
    25    12    15    1
    26    14    41    1
    27    14    42    1
    28    14    43    1
    29    15    16    1
    30    16    17    2
    31    16    18    1
    32    18    19    1
    33    18    44    1
    34    18    45    1
    35    19    30    1
    36    19    20    2
    37    20    21    1
    38    20    46    1
    39    21    22    1
    40    22    23    1
    41    22    30    2
    42    23    24    1
    43    23    47    1
    44    23    48    1
    45    24    29   ar
    46    24    25   ar
    47    25    26   ar
    48    25    49    1
    49    26    27   ar
    50    26    50    1
    51    27    28   ar
    52    27    51    1
    53    28    29   ar
    54    28    52    1
    55    29    53    1
@<TRIPOS>SUBSTRUCTURE
     1 ZINC000046390957        1 TEMP              0 ****  ****    0 ROOT


##########                                Name:    ZINC001083519372
##########                DOCK_Rotatable_Bonds:                   7
##########                         Heavy_Atoms:                  27
##########                    Molecular_Weight:             370.411
##########                DOCK_Rotatable_Bonds:                   7
##########                       Formal_Charge:           0.0399996
##########                     HBond_Acceptors:                   9
##########                        HBond_Donors:                   2
##########                         Heavy_Atoms:                  27
##########                          Grid_Score:          -37.435562
##########                     Grid_vdw_energy:          -36.160137
##########                      Grid_es_energy:           -1.275426
##########           Internal_energy_repulsive:           11.229415

@<TRIPOS>MOLECULE
ZINC001083519372
 49 52 1 0 0
SMALL
USER_CHARGES


@<TRIPOS>ATOM
      1 C1        -13.3422    0.1578   51.8242 C.3     1  ZINC001083519372   -0.1500
      2 C2        -13.7904   -1.2813   52.0864 C.3     1  ZINC001083519372   -0.0100
      3 C3        -14.5461   -1.8105   50.8658 C.3     1  ZINC001083519372   -0.1500
      4 C4        -12.5822   -2.1449   52.3426 C.2     1  ZINC001083519372   -0.0100
      5 C5        -12.5420   -3.2584   53.0928 C.2     1  ZINC001083519372   -0.0100
      6 C6        -13.7009   -3.8736   53.8342 C.3     1  ZINC001083519372    0.1300
      7 N7        -13.2008   -4.5972   55.0107 N.3     1  ZINC001083519372   -0.5000
      8 C8        -12.5415   -3.6698   55.9654 C.3     1  ZINC001083519372    0.0300
      9 C9        -12.5665   -4.4574   57.2993 C.3     1  ZINC001083519372    0.1500
     10 H10       -11.7527   -5.1817   57.3351 H       1  ZINC001083519372    0.1200
     11 N11       -12.4954   -3.5437   58.4423 N.am    1  ZINC001083519372   -0.6900
     12 C12       -11.3397   -3.4024   59.1212 C.2     1  ZINC001083519372    0.5600
     13 O13       -10.3557   -4.0322   58.7842 O.2     1  ZINC001083519372   -0.5100
     14 C14       -11.2684   -2.4838   60.2730 C.2     1  ZINC001083519372    0.1400
     15 C15       -10.0582   -2.0730   60.7632 C.2     1  ZINC001083519372   -0.1500
     16 C16       -10.0236   -1.1999   61.8587 C.2     1  ZINC001083519372    0.1800
     17 N17       -11.1370   -0.7799   62.4097 N.2     1  ZINC001083519372   -0.4400
     18 C18       -12.3289   -1.1695   61.9456 C.2     1  ZINC001083519372    0.2500
     19 C19       -13.6313   -0.8800   62.3379 C.2     1  ZINC001083519372   -0.2500
     20 C20       -14.4873   -1.5674   61.4935 C.2     1  ZINC001083519372    0.1000
     21 N21       -13.7752   -2.2486   60.6225 N.2     1  ZINC001083519372   -0.3100
     22 N22       -12.4176   -2.0195   60.8712 N.pl3   1  ZINC001083519372   -0.3100
     23 C23       -13.9353   -5.1745   57.2518 C.3     1  ZINC001083519372    0.0900
     24 H24       -13.8477   -6.1841   57.6534 H       1  ZINC001083519372    0.0800
     25 O25       -14.9101   -4.4321   57.9871 O.3     1  ZINC001083519372   -0.5600
     26 C26       -14.3119   -5.2238   55.7595 C.3     1  ZINC001083519372    0.0100
     27 N27       -11.2812   -3.7253   53.0630 N.2     1  ZINC001083519372   -0.4800
     28 C28       -10.5600   -2.9333   52.3219 C.2     1  ZINC001083519372    0.1700
     29 O29       -11.3406   -1.9486   51.8573 O.3     1  ZINC001083519372   -0.2000
     30 H30       -12.8037    0.5349   52.6936 H       1  ZINC001083519372    0.0600
     31 H31       -12.6873    0.1814   50.9530 H       1  ZINC001083519372    0.0600
     32 H32       -14.2160    0.7825   51.6389 H       1  ZINC001083519372    0.0700
     33 H33       -14.4451   -1.3049   52.9575 H       1  ZINC001083519372    0.1000
     34 H34       -13.8913   -1.7870   49.9948 H       1  ZINC001083519372    0.0600
     35 H35       -14.8654   -2.8358   51.0527 H       1  ZINC001083519372    0.0600
     36 H36       -15.4199   -1.1858   50.6805 H       1  ZINC001083519372    0.0700
     37 H37       -14.3855   -3.0882   54.1545 H       1  ZINC001083519372    0.0900
     38 H38       -14.2255   -4.5672   53.1769 H       1  ZINC001083519372    0.0600
     39 H39       -11.5157   -3.4665   55.6579 H       1  ZINC001083519372    0.1000
     40 H40       -13.1082   -2.7431   56.0551 H       1  ZINC001083519372    0.0600
     41 H41       -13.2800   -3.0403   58.7105 H       1  ZINC001083519372    0.4300
     42 H42        -9.1403   -2.4182   60.3109 H       1  ZINC001083519372    0.1800
     43 H43        -9.0731   -0.8709   62.2524 H       1  ZINC001083519372    0.1900
     44 H44       -13.9228   -0.2355   63.1541 H       1  ZINC001083519372    0.1700
     45 H45       -15.5660   -1.5474   61.5426 H       1  ZINC001083519372    0.2000
     46 H46       -15.8244   -4.6575   57.7670 H       1  ZINC001083519372    0.3900
     47 H47       -15.2338   -4.6673   55.5905 H       1  ZINC001083519372    0.0700
     48 H48       -14.4364   -6.2590   55.4418 H       1  ZINC001083519372    0.0900
     49 H49        -9.5072   -3.0532   52.1129 H       1  ZINC001083519372    0.2500
@<TRIPOS>BOND
     1     1     2    1
     2     1    30    1
     3     1    31    1
     4     1    32    1
     5     2     3    1
     6     2     4    1
     7     2    33    1
     8     3    34    1
     9     3    35    1
    10     3    36    1
    11     4    29    1
    12     4     5    2
    13     5     6    1
    14     5    27    1
    15     6     7    1
    16     6    37    1
    17     6    38    1
    18     7    26    1
    19     7     8    1
    20     8     9    1
    21     8    39    1
    22     8    40    1
    23     9    10    1
    24     9    11    1
    25     9    23    1
    26    11    12   am
    27    11    41    1
    28    12    13    2
    29    12    14    1
    30    14    22    1
    31    14    15    2
    32    15    16    1
    33    15    42    1
    34    16    17    2
    35    16    43    1
    36    17    18    1
    37    18    22    1
    38    18    19    2
    39    19    20    1
    40    19    44    1
    41    20    21    2
    42    20    45    1
    43    21    22    1
    44    23    24    1
    45    23    25    1
    46    23    26    1
    47    25    46    1
    48    26    47    1
    49    26    48    1
    50    27    28    2
    51    28    29    1
    52    28    49    1
@<TRIPOS>SUBSTRUCTURE
     1 ZINC001083519372        1 TEMP              0 ****  ****    0 ROOT


##########                                Name:    ZINC000543625960
##########                DOCK_Rotatable_Bonds:                   8
##########                         Heavy_Atoms:                  29
##########                    Molecular_Weight:             416.544
##########                DOCK_Rotatable_Bonds:                   8
##########                       Formal_Charge:           -0.010001
##########                     HBond_Acceptors:                   8
##########                        HBond_Donors:                   2
##########                         Heavy_Atoms:                  29
##########                          Grid_Score:          -37.413601
##########                     Grid_vdw_energy:          -34.681988
##########                      Grid_es_energy:           -2.731614
##########           Internal_energy_repulsive:           15.695722

@<TRIPOS>MOLECULE
ZINC000543625960
 57 59 1 0 0
SMALL
USER_CHARGES


@<TRIPOS>ATOM
      1 C1         -4.5004    2.7272   64.4620 C.3     1  ZINC000543625960   -0.1500
      2 C2         -5.0336    1.3920   64.9850 C.3     1  ZINC000543625960   -0.1300
      3 C3         -6.0039    1.6475   66.1401 C.3     1  ZINC000543625960    0.1500
      4 H4         -6.8125    2.2939   65.7991 H       1  ZINC000543625960    0.0800
      5 C5         -5.2590    2.3266   67.2912 C.3     1  ZINC000543625960   -0.1700
      6 N6         -6.5594    0.3731   66.6023 N.am    1  ZINC000543625960   -1.1100
      7 S7         -8.0987    0.3125   67.2098 S.o2    1  ZINC000543625960    2.7000
      8 O8         -8.3922   -1.0614   67.4228 O.2     1  ZINC000543625960   -0.9600
      9 O9         -8.1625    1.2896   68.2395 O.2     1  ZINC000543625960   -0.9500
     10 C10        -9.1844    0.8615   65.9351 C.ar    1  ZINC000543625960   -0.6600
     11 C11       -10.0649    1.8994   66.1775 C.ar    1  ZINC000543625960   -0.0400
     12 C12       -10.9188    2.3332   65.1797 C.ar    1  ZINC000543625960   -0.1200
     13 C13       -10.8941    1.7304   63.9375 C.ar    1  ZINC000543625960   -0.0600
     14 C14       -10.0103    0.6878   63.6907 C.ar    1  ZINC000543625960    0.1500
     15 N15        -9.9828    0.0747   62.4329 N.am    1  ZINC000543625960   -0.6800
     16 C16       -10.9906   -0.7373   62.0569 C.2     1  ZINC000543625960    0.7200
     17 O17       -11.9237   -0.9372   62.8104 O.2     1  ZINC000543625960   -0.5600
     18 N18       -10.9642   -1.3277   60.8456 N.am    1  ZINC000543625960   -0.6300
     19 C19        -9.8993   -1.1735   59.8377 C.3     1  ZINC000543625960    0.0900
     20 C20        -9.9909   -2.4506   58.9657 C.3     1  ZINC000543625960   -0.1000
     21 H21        -9.5859   -2.2732   57.9694 H       1  ZINC000543625960    0.1000
     22 C22        -9.2833   -3.6274   59.6405 C.3     1  ZINC000543625960   -0.1500
     23 C23       -11.5243   -2.6806   58.9100 C.3     1  ZINC000543625960   -0.1200
     24 C24       -11.9894   -2.2370   60.3130 C.3     1  ZINC000543625960    0.2000
     25 H25       -12.0931   -3.1071   60.9613 H       1  ZINC000543625960    0.0900
     26 C26       -13.3076   -1.5139   60.2112 C.ar    1  ZINC000543625960   -0.1400
     27 C27       -13.4000   -0.3169   59.5183 C.ar    1  ZINC000543625960   -0.0600
     28 C28       -14.6336    0.3129   59.4504 C.ar    1  ZINC000543625960   -0.1700
     29 C29       -15.7220   -0.2693   60.0713 C.ar    1  ZINC000543625960    0.1000
     30 N30       -15.5971   -1.4097   60.7221 N.ar    1  ZINC000543625960   -0.4800
     31 C31       -14.4412   -2.0390   60.8027 C.ar    1  ZINC000543625960    0.1200
     32 C32        -9.1509    0.2581   64.6929 C.ar    1  ZINC000543625960   -0.0500
     33 H33        -3.8091    2.5451   63.6391 H       1  ZINC000543625960    0.0600
     34 H34        -5.3319    3.3377   64.1097 H       1  ZINC000543625960    0.0600
     35 H35        -3.9802    3.2502   65.2645 H       1  ZINC000543625960    0.0500
     36 H36        -5.5538    0.8690   64.1824 H       1  ZINC000543625960    0.0700
     37 H37        -4.2021    0.7815   65.3372 H       1  ZINC000543625960    0.0800
     38 H38        -4.8458    3.2747   66.9473 H       1  ZINC000543625960    0.0700
     39 H39        -5.9503    2.5086   68.1140 H       1  ZINC000543625960    0.0700
     40 H40        -4.4504    1.6801   67.6322 H       1  ZINC000543625960    0.0600
     41 H41        -6.0254   -0.4352   66.5526 H       1  ZINC000543625960    0.4200
     42 H42       -10.0865    2.3723   67.1482 H       1  ZINC000543625960    0.1400
     43 H43       -11.6057    3.1439   65.3723 H       1  ZINC000543625960    0.1400
     44 H44       -11.5614    2.0690   63.1589 H       1  ZINC000543625960    0.1400
     45 H45        -9.2385    0.2343   61.8318 H       1  ZINC000543625960    0.4100
     46 H46       -10.0772   -0.2860   59.2305 H       1  ZINC000543625960    0.0700
     47 H47        -8.9245   -1.1139   60.3219 H       1  ZINC000543625960    0.0800
     48 H48        -9.7340   -3.8117   60.6157 H       1  ZINC000543625960    0.0600
     49 H49        -9.3849   -4.5172   59.0192 H       1  ZINC000543625960    0.0600
     50 H50        -8.2266   -3.3917   59.7674 H       1  ZINC000543625960    0.0600
     51 H51       -11.9791   -2.0626   58.1358 H       1  ZINC000543625960    0.0800
     52 H52       -11.7506   -3.7342   58.7464 H       1  ZINC000543625960    0.0900
     53 H53       -12.5318    0.1152   59.0429 H       1  ZINC000543625960    0.1300
     54 H54       -14.7421    1.2471   58.9193 H       1  ZINC000543625960    0.1400
     55 H55       -16.6861    0.2150   60.0233 H       1  ZINC000543625960    0.1600
     56 H56       -14.3777   -2.9711   61.3446 H       1  ZINC000543625960    0.1400
     57 H57        -8.4625   -0.5525   64.5041 H       1  ZINC000543625960    0.1400
@<TRIPOS>BOND
     1     1     2    1
     2     1    33    1
     3     1    34    1
     4     1    35    1
     5     2     3    1
     6     2    36    1
     7     2    37    1
     8     3     4    1
     9     3     5    1
    10     3     6    1
    11     5    38    1
    12     5    39    1
    13     5    40    1
    14     6     7   am
    15     6    41    1
    16     7     8    2
    17     7     9    2
    18     7    10    1
    19    10    32   ar
    20    10    11   ar
    21    11    12   ar
    22    11    42    1
    23    12    13   ar
    24    12    43    1
    25    13    14   ar
    26    13    44    1
    27    14    15    1
    28    14    32   ar
    29    15    16   am
    30    15    45    1
    31    16    17    2
    32    16    18   am
    33    18    24    1
    34    18    19    1
    35    19    20    1
    36    19    46    1
    37    19    47    1
    38    20    21    1
    39    20    22    1
    40    20    23    1
    41    22    48    1
    42    22    49    1
    43    22    50    1
    44    23    24    1
    45    23    51    1
    46    23    52    1
    47    24    25    1
    48    24    26    1
    49    26    31   ar
    50    26    27   ar
    51    27    28   ar
    52    27    53    1
    53    28    29   ar
    54    28    54    1
    55    29    30   ar
    56    29    55    1
    57    30    31   ar
    58    31    56    1
    59    32    57    1
@<TRIPOS>SUBSTRUCTURE
     1 ZINC000543625960        1 TEMP              0 ****  ****    0 ROOT


##########                                Name:    ZINC001067316277
##########                DOCK_Rotatable_Bonds:                   5
##########                         Heavy_Atoms:                  24
##########                    Molecular_Weight:             345.469
##########                DOCK_Rotatable_Bonds:                   5
##########                       Formal_Charge:          -0.0200007
##########                     HBond_Acceptors:                   7
##########                        HBond_Donors:                   2
##########                         Heavy_Atoms:                  24
##########                          Grid_Score:          -37.401958
##########                     Grid_vdw_energy:          -36.411430
##########                      Grid_es_energy:           -0.990528
##########           Internal_energy_repulsive:            8.704870

@<TRIPOS>MOLECULE
ZINC001067316277
 47 49 1 0 0
SMALL
USER_CHARGES


@<TRIPOS>ATOM
      1 C1         -6.6688    0.6621   50.3085 C.3     1  ZINC001067316277   -0.1400
      2 S2         -6.5507    1.9095   51.6147 S.3     1  ZINC001067316277   -0.0400
      3 C3         -4.9124    2.4935   51.3328 C.ar    1  ZINC001067316277    0.1800
      4 C4         -4.2782    3.3075   52.2747 C.ar    1  ZINC001067316277   -0.2400
      5 C5         -2.9940    3.7417   52.0116 C.ar    1  ZINC001067316277    0.1900
      6 N6         -2.4046    3.3769   50.8822 N.ar    1  ZINC001067316277   -0.5600
      7 C7         -3.0299    2.6038   50.0061 C.ar    1  ZINC001067316277    0.5100
      8 N8         -2.3798    2.2448   48.8383 N.3     1  ZINC001067316277   -0.4600
      9 C9         -2.9680    1.0296   48.2608 C.3     1  ZINC001067316277    0.0700
     10 C10        -2.1366    0.5813   47.0567 C.3     1  ZINC001067316277   -0.1300
     11 C11        -2.1104    1.7030   46.0147 C.3     1  ZINC001067316277    0.1600
     12 H12        -3.1237    1.8977   45.6636 H       1  ZINC001067316277    0.0900
     13 N13        -1.2692    1.3017   44.8844 N.am    1  ZINC001067316277   -0.7200
     14 C14        -1.7592    0.4745   43.9400 C.2     1  ZINC001067316277    0.5900
     15 O15        -2.9000    0.0597   44.0268 O.2     1  ZINC001067316277   -0.5300
     16 C16        -0.9176    0.0741   42.8074 C.2     1  ZINC001067316277   -0.0600
     17 C17         0.3987    0.4305   42.6041 C.2     1  ZINC001067316277   -0.1000
     18 C18         0.8068   -0.1693   41.4087 C.2     1  ZINC001067316277   -0.2100
     19 C19        -0.2440   -0.8660   40.9135 C.2     1  ZINC001067316277    0.0300
     20 N20        -1.2963   -0.7307   41.7569 N.pl3   1  ZINC001067316277   -0.5400
     21 C21        -1.5384    2.9707   46.6553 C.3     1  ZINC001067316277   -0.0700
     22 C22        -0.0970    2.7131   47.0989 C.3     1  ZINC001067316277   -0.1400
     23 C23        -1.5634    4.1131   45.6377 C.3     1  ZINC001067316277   -0.1400
     24 C24        -2.3872    3.3496   47.8710 C.3     1  ZINC001067316277    0.0800
     25 N25        -4.2592    2.1615   50.2228 N.ar    1  ZINC001067316277   -0.5400
     26 H26        -6.5290    1.1381   49.3379 H       1  ZINC001067316277    0.0900
     27 H27        -5.8975   -0.0936   50.4570 H       1  ZINC001067316277    0.0900
     28 H28        -7.6510    0.1907   50.3439 H       1  ZINC001067316277    0.1000
     29 H29        -4.7808    3.5910   53.1876 H       1  ZINC001067316277    0.1500
     30 H30        -2.4755    4.3723   52.7186 H       1  ZINC001067316277    0.1700
     31 H31        -2.9768    0.2386   49.0107 H       1  ZINC001067316277    0.1000
     32 H32        -3.9889    1.2372   47.9402 H       1  ZINC001067316277    0.0500
     33 H33        -1.1191    0.3602   47.3791 H       1  ZINC001067316277    0.0800
     34 H34        -2.5824   -0.3118   46.6188 H       1  ZINC001067316277    0.0800
     35 H35        -0.3594    1.6313   44.8158 H       1  ZINC001067316277    0.3900
     36 H36         1.0010    1.0553   43.2469 H       1  ZINC001067316277    0.1500
     37 H37         1.7858   -0.0907   40.9597 H       1  ZINC001067316277    0.1500
     38 H38        -0.2423   -1.4390   39.9979 H       1  ZINC001067316277    0.1700
     39 H39        -2.1722   -1.1299   41.6371 H       1  ZINC001067316277    0.4100
     40 H40         0.5063    2.4399   46.2332 H       1  ZINC001067316277    0.0500
     41 H41         0.3097    3.6158   47.5548 H       1  ZINC001067316277    0.0600
     42 H42        -0.0800    1.9002   47.8248 H       1  ZINC001067316277    0.0700
     43 H43        -2.5906    4.2970   45.3232 H       1  ZINC001067316277    0.0600
     44 H44        -1.1560    5.0151   46.0943 H       1  ZINC001067316277    0.0600
     45 H45        -0.9611    3.8407   44.7710 H       1  ZINC001067316277    0.0600
     46 H46        -3.4107    3.5464   47.5522 H       1  ZINC001067316277    0.0600
     47 H47        -1.9741    4.2439   48.3378 H       1  ZINC001067316277    0.1000
@<TRIPOS>BOND
     1     1     2    1
     2     1    26    1
     3     1    27    1
     4     1    28    1
     5     2     3    1
     6     3    25   ar
     7     3     4   ar
     8     4     5   ar
     9     4    29    1
    10     5     6   ar
    11     5    30    1
    12     6     7   ar
    13     7     8    1
    14     7    25   ar
    15     8    24    1
    16     8     9    1
    17     9    10    1
    18     9    31    1
    19     9    32    1
    20    10    11    1
    21    10    33    1
    22    10    34    1
    23    11    12    1
    24    11    13    1
    25    11    21    1
    26    13    14   am
    27    13    35    1
    28    14    15    2
    29    14    16    1
    30    16    20    1
    31    16    17    2
    32    17    18    1
    33    17    36    1
    34    18    19    2
    35    18    37    1
    36    19    20    1
    37    19    38    1
    38    20    39    1
    39    21    22    1
    40    21    23    1
    41    21    24    1
    42    22    40    1
    43    22    41    1
    44    22    42    1
    45    23    43    1
    46    23    44    1
    47    23    45    1
    48    24    46    1
    49    24    47    1
@<TRIPOS>SUBSTRUCTURE
     1 ZINC001067316277        1 TEMP              0 ****  ****    0 ROOT


##########                                Name:    ZINC001105194920
##########                DOCK_Rotatable_Bonds:                   8
##########                         Heavy_Atoms:                  25
##########                    Molecular_Weight:             346.392
##########                DOCK_Rotatable_Bonds:                   8
##########                       Formal_Charge:          -0.0100007
##########                     HBond_Acceptors:                  10
##########                        HBond_Donors:                   3
##########                         Heavy_Atoms:                  25
##########                          Grid_Score:          -37.375675
##########                     Grid_vdw_energy:          -36.007549
##########                      Grid_es_energy:           -1.368126
##########           Internal_energy_repulsive:           11.824648

@<TRIPOS>MOLECULE
ZINC001105194920
 47 49 1 0 0
SMALL
USER_CHARGES


@<TRIPOS>ATOM
      1 C1         -3.7951    2.1904   65.5408 C.3     1  ZINC001105194920    0.0300
      2 O2         -4.9965    1.4339   65.7030 O.3     1  ZINC001105194920   -0.3900
      3 C3         -5.9985    2.0937   66.4792 C.3     1  ZINC001105194920    0.0700
      4 C4         -7.2335    1.1970   66.5861 C.3     1  ZINC001105194920    0.0900
      5 H5         -6.9603    0.2581   67.0679 H       1  ZINC001105194920    0.0900
      6 C6         -8.3064    1.9034   67.4173 C.3     1  ZINC001105194920   -0.1800
      7 N7         -7.7576    0.9228   65.2413 N.3     1  ZINC001105194920   -0.6800
      8 C8         -8.9474    0.0635   65.3050 C.3     1  ZINC001105194920    0.1400
      9 C9         -9.4553   -0.1953   63.9100 C.2     1  ZINC001105194920   -0.0200
     10 C10       -10.3560    0.5477   63.2254 C.2     1  ZINC001105194920   -0.0200
     11 N11       -10.5078   -0.0565   62.0242 N.pl3   1  ZINC001105194920   -0.2800
     12 C12       -11.3877    0.3927   60.9425 C.3     1  ZINC001105194920    0.1000
     13 C13       -10.6339    0.8701   59.6880 C.3     1  ZINC001105194920    0.1100
     14 N14       -10.7329   -0.5260   59.2199 N.am    1  ZINC001105194920   -0.6300
     15 C15       -10.0221   -1.2884   58.3654 C.2     1  ZINC001105194920    0.6200
     16 O16        -9.0579   -0.8206   57.7914 O.2     1  ZINC001105194920   -0.5400
     17 C17       -10.4148   -2.6924   58.1264 C.ar    1  ZINC001105194920   -0.0600
     18 N18       -11.2917   -2.9876   57.1712 N.ar    1  ZINC001105194920   -0.3700
     19 C19       -11.6398   -4.2408   56.9607 C.ar    1  ZINC001105194920   -0.0200
     20 C20       -11.0959   -5.2584   57.7314 C.ar    1  ZINC001105194920    0.1500
     21 N21       -10.2242   -4.9805   58.6837 N.ar    1  ZINC001105194920   -0.5100
     22 C22        -9.8594   -3.7226   58.9030 C.ar    1  ZINC001105194920    0.4200
     23 N23        -8.9467   -3.4273   59.8989 N.pl3   1  ZINC001105194920   -0.8100
     24 C24       -11.9228   -0.7520   60.0630 C.3     1  ZINC001105194920    0.1100
     25 N25        -9.7460   -1.0936   61.9952 N.2     1  ZINC001105194920   -0.0800
     26 N26        -9.1005   -1.2012   63.1027 N.2     1  ZINC001105194920   -0.2600
     27 H27        -3.3604    2.3961   66.5190 H       1  ZINC001105194920    0.0400
     28 H28        -3.0856    1.6211   64.9403 H       1  ZINC001105194920    0.0800
     29 H29        -4.0229    3.1310   65.0393 H       1  ZINC001105194920    0.0400
     30 H30        -5.6097    2.2970   67.4771 H       1  ZINC001105194920    0.0600
     31 H31        -6.2717    3.0325   65.9975 H       1  ZINC001105194920    0.0500
     32 H32        -8.5796    2.8422   66.9355 H       1  ZINC001105194920    0.0700
     33 H33        -9.1863    1.2645   67.4935 H       1  ZINC001105194920    0.0500
     34 H34        -7.9176    2.1067   68.4151 H       1  ZINC001105194920    0.0600
     35 H35        -7.9571    1.7808   64.7492 H       1  ZINC001105194920    0.3500
     36 H36        -8.6868   -0.8832   65.7784 H       1  ZINC001105194920    0.0900
     37 H37        -9.7232    0.5599   65.8879 H       1  ZINC001105194920    0.0500
     38 H38       -10.8538    1.4425   63.5689 H       1  ZINC001105194920    0.1800
     39 H39       -12.1599    1.0831   61.2818 H       1  ZINC001105194920    0.1500
     40 H40       -11.1969    1.5783   59.0801 H       1  ZINC001105194920    0.1200
     41 H41        -9.6127    1.1956   59.8864 H       1  ZINC001105194920    0.1000
     42 H42       -12.3525   -4.4771   56.1845 H       1  ZINC001105194920    0.1800
     43 H43       -11.3870   -6.2828   57.5517 H       1  ZINC001105194920    0.1800
     44 H44        -8.5130   -4.1442   60.3874 H       1  ZINC001105194920    0.4000
     45 H45        -8.7401   -2.5030   60.1090 H       1  ZINC001105194920    0.4300
     46 H46       -11.9308   -1.7216   60.5609 H       1  ZINC001105194920    0.1100
     47 H47       -12.8644   -0.5203   59.5653 H       1  ZINC001105194920    0.1200
@<TRIPOS>BOND
     1     1     2    1
     2     1    27    1
     3     1    28    1
     4     1    29    1
     5     2     3    1
     6     3     4    1
     7     3    30    1
     8     3    31    1
     9     4     5    1
    10     4     6    1
    11     4     7    1
    12     6    32    1
    13     6    33    1
    14     6    34    1
    15     7     8    1
    16     7    35    1
    17     8     9    1
    18     8    36    1
    19     8    37    1
    20     9    26    1
    21     9    10    2
    22    10    11    1
    23    10    38    1
    24    11    12    1
    25    11    25    1
    26    12    24    1
    27    12    13    1
    28    12    39    1
    29    13    14    1
    30    13    40    1
    31    13    41    1
    32    14    15   am
    33    14    24    1
    34    15    16    2
    35    15    17    1
    36    17    22   ar
    37    17    18   ar
    38    18    19   ar
    39    19    20   ar
    40    19    42    1
    41    20    21   ar
    42    20    43    1
    43    21    22   ar
    44    22    23    1
    45    23    44    1
    46    23    45    1
    47    24    46    1
    48    24    47    1
    49    25    26    2
@<TRIPOS>SUBSTRUCTURE
     1 ZINC001105194920        1 TEMP              0 ****  ****    0 ROOT


##########                                Name:    ZINC000512699033
##########                DOCK_Rotatable_Bonds:                   9
##########                         Heavy_Atoms:                  30
##########                    Molecular_Weight:              405.54
##########                DOCK_Rotatable_Bonds:                   9
##########                       Formal_Charge:           0.0199988
##########                     HBond_Acceptors:                   5
##########                        HBond_Donors:                   2
##########                         Heavy_Atoms:                  30
##########                          Grid_Score:          -37.374584
##########                     Grid_vdw_energy:          -36.678593
##########                      Grid_es_energy:           -0.695990
##########           Internal_energy_repulsive:           14.803665

@<TRIPOS>MOLECULE
ZINC000512699033
 61 64 1 0 0
SMALL
USER_CHARGES


@<TRIPOS>ATOM
      1 O1        -13.2803   -2.8511   53.0940 O.2     1  ZINC000512699033   -0.5100
      2 C2        -12.0947   -2.9292   53.3375 C.2     1  ZINC000512699033    0.5200
      3 C3        -11.0924   -2.2801   52.4182 C.3     1  ZINC000512699033   -0.1500
      4 C4        -11.2457   -0.7595   52.4887 C.3     1  ZINC000512699033    0.1300
      5 N5        -10.3568   -0.2264   53.5240 N.am    1  ZINC000512699033   -0.7300
      6 C6        -10.0335    1.0820   53.5262 C.2     1  ZINC000512699033    0.5200
      7 O7        -10.4770    1.8178   52.6703 O.2     1  ZINC000512699033   -0.5300
      8 C8         -9.1205    1.6307   54.5924 C.3     1  ZINC000512699033   -0.1100
      9 C9         -9.4865    3.0888   54.8762 C.3     1  ZINC000512699033   -0.1100
     10 C10        -8.5595    3.6458   55.9586 C.3     1  ZINC000512699033   -0.1200
     11 C11        -8.7169    2.8221   57.2382 C.3     1  ZINC000512699033   -0.1200
     12 C12        -8.3509    1.3639   56.9543 C.3     1  ZINC000512699033   -0.1200
     13 C13        -9.2778    0.8068   55.8720 C.3     1  ZINC000512699033   -0.1000
     14 N14       -11.6739   -3.5919   54.4330 N.am    1  ZINC000512699033   -0.6600
     15 C15       -12.6046   -4.1946   55.2866 C.ar    1  ZINC000512699033    0.1700
     16 C16       -13.5103   -5.1203   54.7860 C.ar    1  ZINC000512699033   -0.1400
     17 C17       -14.4274   -5.7139   55.6313 C.ar    1  ZINC000512699033   -0.1000
     18 C18       -14.4444   -5.3868   56.9746 C.ar    1  ZINC000512699033   -0.1400
     19 C19       -13.5436   -4.4651   57.4763 C.ar    1  ZINC000512699033   -0.0900
     20 C20       -12.6205   -3.8725   56.6376 C.ar    1  ZINC000512699033   -0.1200
     21 C21       -11.6392   -2.8683   57.1851 C.3     1  ZINC000512699033    0.0900
     22 N22       -11.4782   -3.0788   58.6301 N.3     1  ZINC000512699033   -0.4700
     23 C23       -10.2932   -3.9169   58.9148 C.3     1  ZINC000512699033    0.0500
     24 C24        -9.8289   -3.3894   60.2918 C.3     1  ZINC000512699033   -0.0900
     25 C25       -10.3604   -1.9700   60.3053 C.ar    1  ZINC000512699033   -0.1400
     26 C26       -10.0545   -0.8862   61.1007 C.ar    1  ZINC000512699033   -0.0800
     27 C27       -10.6933    0.3243   60.8990 C.ar    1  ZINC000512699033   -0.1400
     28 C28       -11.6391    0.4457   59.8978 C.ar    1  ZINC000512699033   -0.0900
     29 C29       -11.9504   -0.6363   59.1007 C.ar    1  ZINC000512699033   -0.1400
     30 C30       -11.3136   -1.8598   59.2995 C.ar    1  ZINC000512699033    0.0900
     31 H31       -10.0842   -2.5583   52.7252 H       1  ZINC000512699033    0.1100
     32 H32       -11.2665   -2.6158   51.3958 H       1  ZINC000512699033    0.1000
     33 H33       -10.9838   -0.3228   51.5249 H       1  ZINC000512699033    0.0800
     34 H34       -12.2782   -0.5093   52.7322 H       1  ZINC000512699033    0.0800
     35 H35       -10.0011   -0.8151   54.2079 H       1  ZINC000512699033    0.4000
     36 H36        -8.0873    1.5755   54.2494 H       1  ZINC000512699033    0.1000
     37 H37        -9.3744    3.6757   53.9646 H       1  ZINC000512699033    0.0700
     38 H38       -10.5196    3.1440   55.2191 H       1  ZINC000512699033    0.0700
     39 H39        -7.5263    3.5908   55.6157 H       1  ZINC000512699033    0.0600
     40 H40        -8.8202    4.6847   56.1609 H       1  ZINC000512699033    0.0700
     41 H41        -8.0565    3.2189   58.0093 H       1  ZINC000512699033    0.0600
     42 H42        -9.7501    2.8772   57.5811 H       1  ZINC000512699033    0.0600
     43 H43        -7.3177    1.3087   56.6114 H       1  ZINC000512699033    0.0600
     44 H44        -8.4630    0.7770   57.8660 H       1  ZINC000512699033    0.0700
     45 H45       -10.3110    0.8621   56.2148 H       1  ZINC000512699033    0.0700
     46 H46        -9.0171   -0.2320   55.6697 H       1  ZINC000512699033    0.0700
     47 H47       -10.7259   -3.6508   54.6299 H       1  ZINC000512699033    0.4200
     48 H48       -13.4979   -5.3757   53.7366 H       1  ZINC000512699033    0.1500
     49 H49       -15.1322   -6.4339   55.2425 H       1  ZINC000512699033    0.1300
     50 H50       -15.1629   -5.8518   57.6333 H       1  ZINC000512699033    0.1200
     51 H51       -13.5593   -4.2117   58.5261 H       1  ZINC000512699033    0.1200
     52 H52       -10.6763   -2.9940   56.6901 H       1  ZINC000512699033    0.0600
     53 H53       -12.0119   -1.8601   57.0042 H       1  ZINC000512699033    0.0900
     54 H54       -10.5699   -4.9694   58.9771 H       1  ZINC000512699033    0.1000
     55 H55        -9.5207   -3.7630   58.1614 H       1  ZINC000512699033    0.0600
     56 H56       -10.2707   -3.9746   61.0984 H       1  ZINC000512699033    0.0900
     57 H57        -8.7411   -3.3949   60.3606 H       1  ZINC000512699033    0.0800
     58 H58        -9.3155   -0.9823   61.8824 H       1  ZINC000512699033    0.1200
     59 H59       -10.4539    1.1728   61.5228 H       1  ZINC000512699033    0.1300
     60 H60       -12.1364    1.3911   59.7395 H       1  ZINC000512699033    0.1300
     61 H61       -12.6905   -0.5351   58.3205 H       1  ZINC000512699033    0.1200
@<TRIPOS>BOND
     1     1     2    2
     2     2     3    1
     3     2    14   am
     4     3     4    1
     5     3    31    1
     6     3    32    1
     7     4     5    1
     8     4    33    1
     9     4    34    1
    10     5     6   am
    11     5    35    1
    12     6     7    2
    13     6     8    1
    14     8    13    1
    15     8     9    1
    16     8    36    1
    17     9    10    1
    18     9    37    1
    19     9    38    1
    20    10    11    1
    21    10    39    1
    22    10    40    1
    23    11    12    1
    24    11    41    1
    25    11    42    1
    26    12    13    1
    27    12    43    1
    28    12    44    1
    29    13    45    1
    30    13    46    1
    31    14    15    1
    32    14    47    1
    33    15    20   ar
    34    15    16   ar
    35    16    17   ar
    36    16    48    1
    37    17    18   ar
    38    17    49    1
    39    18    19   ar
    40    18    50    1
    41    19    20   ar
    42    19    51    1
    43    20    21    1
    44    21    22    1
    45    21    52    1
    46    21    53    1
    47    22    30    1
    48    22    23    1
    49    23    24    1
    50    23    54    1
    51    23    55    1
    52    24    25    1
    53    24    56    1
    54    24    57    1
    55    25    30   ar
    56    25    26   ar
    57    26    27   ar
    58    26    58    1
    59    27    28   ar
    60    27    59    1
    61    28    29   ar
    62    28    60    1
    63    29    30   ar
    64    29    61    1
@<TRIPOS>SUBSTRUCTURE
     1 ZINC000512699033        1 TEMP              0 ****  ****    0 ROOT


##########                                Name:    ZINC000466160459
##########                DOCK_Rotatable_Bonds:                   9
##########                         Heavy_Atoms:                  30
##########                    Molecular_Weight:             420.512
##########                DOCK_Rotatable_Bonds:                   9
##########                       Formal_Charge:          -0.0300007
##########                     HBond_Acceptors:                  10
##########                        HBond_Donors:                   2
##########                         Heavy_Atoms:                  30
##########                          Grid_Score:          -37.333149
##########                     Grid_vdw_energy:          -38.514362
##########                      Grid_es_energy:            1.181212
##########           Internal_energy_repulsive:          105.764610

@<TRIPOS>MOLECULE
ZINC000466160459
 62 64 1 0 0
SMALL
USER_CHARGES


@<TRIPOS>ATOM
      1 C1        -14.5353   -4.6735   54.9749 C.3     1  ZINC000466160459    0.0300
      2 O2        -14.4070   -4.9801   56.3647 O.3     1  ZINC000466160459   -0.3900
      3 C3        -15.0054   -4.0137   57.2308 C.3     1  ZINC000466160459    0.0500
      4 C4        -14.2277   -2.6990   57.1427 C.3     1  ZINC000466160459    0.1200
      5 N5        -12.8311   -2.9317   57.5188 N.am    1  ZINC000466160459   -0.7300
      6 C6        -12.5045   -3.1235   58.8122 C.2     1  ZINC000466160459    0.5200
      7 O7        -13.3670   -3.1048   59.6647 O.2     1  ZINC000466160459   -0.5200
      8 C8        -11.0675   -3.3610   59.1994 C.3     1  ZINC000466160459   -0.1300
      9 H9        -10.8313   -4.4195   59.0892 H       1  ZINC000466160459    0.1100
     10 C10       -10.8541   -2.9387   60.6548 C.3     1  ZINC000466160459   -0.1000
     11 C11       -11.2176   -1.4611   60.8175 C.3     1  ZINC000466160459   -0.1500
     12 C12       -10.3021   -0.6132   59.9288 C.3     1  ZINC000466160459    0.1600
     13 H13        -9.2736   -0.6955   60.2801 H       1  ZINC000466160459    0.0700
     14 C14       -10.7469    0.8497   59.9822 C.3     1  ZINC000466160459   -0.1400
     15 N15       -10.3923   -1.1083   58.5485 N.am    1  ZINC000466160459   -0.6200
     16 C16       -10.6908   -0.2698   57.5363 C.2     1  ZINC000466160459    0.7100
     17 O17       -10.8883    0.9085   57.7613 O.2     1  ZINC000466160459   -0.5500
     18 N18       -10.7703   -0.7377   56.2749 N.am    1  ZINC000466160459   -0.7300
     19 C19       -11.0947    0.1737   55.1747 C.3     1  ZINC000466160459    0.1600
     20 H20       -11.2123    1.1847   55.5648 H       1  ZINC000466160459    0.1300
     21 C21       -12.4017   -0.2717   54.5141 C.3     1  ZINC000466160459   -0.1400
     22 C22       -12.1352   -1.5663   53.7367 C.3     1  ZINC000466160459   -0.1400
     23 C23       -11.2138   -1.2491   52.5582 C.3     1  ZINC000466160459    0.1100
     24 N24       -10.0454   -0.5043   53.0104 N.am    1  ZINC000466160459   -0.5200
     25 C25        -8.9189   -0.4799   52.1768 C.2     1  ZINC000466160459    0.2800
     26 N26        -8.2383    0.5876   51.8317 N.2     1  ZINC000466160459   -0.2600
     27 N27        -7.1911    0.1856   50.9928 N.pl3   1  ZINC000466160459   -0.3800
     28 C28        -6.1911    1.0653   50.3826 C.3     1  ZINC000466160459    0.1000
     29 C29        -7.2641   -1.1541   50.8453 C.2     1  ZINC000466160459    0.0700
     30 C30        -8.3178   -1.5943   51.5699 C.2     1  ZINC000466160459   -0.2900
     31 C31        -9.9820    0.1543   54.1663 C.2     1  ZINC000466160459    0.4900
     32 O32        -8.9705    0.7740   54.4192 O.2     1  ZINC000466160459   -0.4700
     33 C33       -10.1503   -2.5353   58.2918 C.3     1  ZINC000466160459    0.1200
     34 H34       -14.0558   -5.4544   54.3848 H       1  ZINC000466160459    0.0900
     35 H35       -15.5915   -4.6160   54.7116 H       1  ZINC000466160459    0.0400
     36 H36       -14.0567   -3.7163   54.7684 H       1  ZINC000466160459    0.0400
     37 H37       -16.0390   -3.8454   56.9285 H       1  ZINC000466160459    0.0600
     38 H38       -14.9822   -4.3815   58.2566 H       1  ZINC000466160459    0.0700
     39 H39       -14.2706   -2.3192   56.1219 H       1  ZINC000466160459    0.0800
     40 H40       -14.6698   -1.9692   57.8209 H       1  ZINC000466160459    0.0800
     41 H41       -12.1414   -2.9478   56.8370 H       1  ZINC000466160459    0.4000
     42 H42       -11.4877   -3.5423   61.3047 H       1  ZINC000466160459    0.0700
     43 H43        -9.8091   -3.0877   60.9266 H       1  ZINC000466160459    0.0700
     44 H44       -12.2556   -1.3071   60.5223 H       1  ZINC000466160459    0.1000
     45 H45       -11.0877   -1.1671   61.8590 H       1  ZINC000466160459    0.0700
     46 H46       -10.7840    1.1805   61.0202 H       1  ZINC000466160459    0.0400
     47 H47       -10.0373    1.4656   59.4298 H       1  ZINC000466160459    0.0800
     48 H48       -11.7363    0.9452   59.5348 H       1  ZINC000466160459    0.0600
     49 H49       -10.6125   -1.6778   56.0954 H       1  ZINC000466160459    0.3900
     50 H50       -13.1568   -0.4520   55.2793 H       1  ZINC000466160459    0.0900
     51 H51       -12.7494    0.5022   53.8299 H       1  ZINC000466160459    0.0900
     52 H52       -11.6547   -2.2936   54.3912 H       1  ZINC000466160459    0.0700
     53 H53       -13.0771   -1.9708   53.3660 H       1  ZINC000466160459    0.1000
     54 H54       -10.8898   -2.1801   52.0933 H       1  ZINC000466160459    0.0900
     55 H55       -11.7585   -0.6543   51.8250 H       1  ZINC000466160459    0.0800
     56 H56        -5.3347    1.1601   51.0504 H       1  ZINC000466160459    0.0700
     57 H57        -5.8657    0.6415   49.4325 H       1  ZINC000466160459    0.0900
     58 H58        -6.6286    2.0487   50.2110 H       1  ZINC000466160459    0.0900
     59 H59        -6.5970   -1.7663   50.2567 H       1  ZINC000466160459    0.1800
     60 H60        -8.6437   -2.6200   51.6596 H       1  ZINC000466160459    0.1500
     61 H61        -9.1093   -2.7743   58.5095 H       1  ZINC000466160459    0.0900
     62 H62       -10.3686   -2.7610   57.2480 H       1  ZINC000466160459    0.0700
@<TRIPOS>BOND
     1     1     2    1
     2     1    34    1
     3     1    35    1
     4     1    36    1
     5     2     3    1
     6     3     4    1
     7     3    37    1
     8     3    38    1
     9     4     5    1
    10     4    39    1
    11     4    40    1
    12     5     6   am
    13     5    41    1
    14     6     7    2
    15     6     8    1
    16     8     9    1
    17     8    33    1
    18     8    10    1
    19    10    11    1
    20    10    42    1
    21    10    43    1
    22    11    12    1
    23    11    44    1
    24    11    45    1
    25    12    13    1
    26    12    14    1
    27    12    15    1
    28    14    46    1
    29    14    47    1
    30    14    48    1
    31    15    16   am
    32    15    33    1
    33    16    17    2
    34    16    18   am
    35    18    19    1
    36    18    49    1
    37    19    20    1
    38    19    31    1
    39    19    21    1
    40    21    22    1
    41    21    50    1
    42    21    51    1
    43    22    23    1
    44    22    52    1
    45    22    53    1
    46    23    24    1
    47    23    54    1
    48    23    55    1
    49    24    25    1
    50    24    31   am
    51    25    30    1
    52    25    26    2
    53    26    27    1
    54    27    28    1
    55    27    29    1
    56    28    56    1
    57    28    57    1
    58    28    58    1
    59    29    30    2
    60    29    59    1
    61    30    60    1
    62    31    32    2
    63    33    61    1
    64    33    62    1
@<TRIPOS>SUBSTRUCTURE
     1 ZINC000466160459        1 TEMP              0 ****  ****    0 ROOT


##########                                Name:    ZINC000572257265
##########                DOCK_Rotatable_Bonds:                  11
##########                         Heavy_Atoms:                  24
##########                    Molecular_Weight:             393.509
##########                DOCK_Rotatable_Bonds:                  11
##########                       Formal_Charge:          -0.0100002
##########                     HBond_Acceptors:                  11
##########                        HBond_Donors:                   3
##########                         Heavy_Atoms:                  24
##########                          Grid_Score:          -37.311493
##########                     Grid_vdw_energy:          -36.607525
##########                      Grid_es_energy:           -0.703967
##########           Internal_energy_repulsive:           10.810129

@<TRIPOS>MOLECULE
ZINC000572257265
 43 43 1 0 0
SMALL
USER_CHARGES


@<TRIPOS>ATOM
      1 C1         -9.2946   -0.1626   52.8560 C.3     1  ZINC000572257265   -0.1300
      2 S2        -10.3190   -1.5114   52.2065 S.3     1  ZINC000572257265   -0.2200
      3 C3        -11.7088   -1.5653   53.3711 C.3     1  ZINC000572257265   -0.1300
      4 C4        -12.7192   -2.6181   52.9109 C.3     1  ZINC000572257265    0.1500
      5 C5        -13.3585   -2.1705   51.5949 C.3     1  ZINC000572257265   -0.1500
      6 O6        -12.0511   -3.8661   52.7157 O.3     1  ZINC000572257265   -0.5400
      7 C7        -13.8055   -2.7822   53.9758 C.3     1  ZINC000572257265    0.0900
      8 N8        -13.9685   -4.2032   54.2922 N.am    1  ZINC000572257265   -1.1100
      9 S9        -14.3015   -4.6729   55.8450 S.o2    1  ZINC000572257265    2.6900
     10 O10       -15.4461   -3.9350   56.2507 O.2     1  ZINC000572257265   -0.9400
     11 O11       -14.2486   -6.0929   55.8546 O.2     1  ZINC000572257265   -0.9500
     12 C12       -12.9682   -4.1184   56.8547 C.ar    1  ZINC000572257265   -0.6300
     13 C13       -12.8963   -2.7921   57.2375 C.ar    1  ZINC000572257265   -0.0400
     14 C14       -11.8502   -2.3571   58.0297 C.ar    1  ZINC000572257265   -0.0400
     15 C15       -10.8764   -3.2486   58.4393 C.ar    1  ZINC000572257265   -0.6300
     16 S16        -9.5427   -2.6939   59.4485 S.o2    1  ZINC000572257265    2.7000
     17 O17        -8.6165   -3.7695   59.5162 O.2     1  ZINC000572257265   -0.9400
     18 O18        -9.1962   -1.3982   58.9791 O.2     1  ZINC000572257265   -0.9400
     19 N19       -10.1382   -2.4926   60.9806 N.am    1  ZINC000572257265   -1.1200
     20 C20       -11.2299   -1.5463   61.2237 C.3     1  ZINC000572257265    0.2200
     21 C21       -12.5109   -2.2710   61.2489 C.1     1  ZINC000572257265    0.1900
     22 N22       -13.4995   -2.8303   61.2683 N.1     1  ZINC000572257265   -0.3900
     23 C23       -10.9489   -4.5752   58.0575 C.ar    1  ZINC000572257265   -0.0400
     24 C24       -11.9971   -5.0109   57.2686 C.ar    1  ZINC000572257265   -0.0400
     25 H25        -8.9808   -0.4015   53.8721 H       1  ZINC000572257265    0.0800
     26 H26        -8.4153   -0.0375   52.2240 H       1  ZINC000572257265    0.1000
     27 H27        -9.8722    0.7619   52.8620 H       1  ZINC000572257265    0.0800
     28 H28       -11.3411   -1.8241   54.3639 H       1  ZINC000572257265    0.0900
     29 H29       -12.1919   -0.5888   53.4056 H       1  ZINC000572257265    0.0900
     30 H30       -12.5846   -2.0537   50.8363 H       1  ZINC000572257265    0.0800
     31 H31       -14.0784   -2.9205   51.2671 H       1  ZINC000572257265    0.0700
     32 H32       -13.8681   -1.2185   51.7438 H       1  ZINC000572257265    0.0800
     33 H33       -11.3918   -3.8529   52.0085 H       1  ZINC000572257265    0.3800
     34 H34       -13.5165   -2.2402   54.8762 H       1  ZINC000572257265    0.0900
     35 H35       -14.7473   -2.3837   53.5984 H       1  ZINC000572257265    0.0800
     36 H36       -13.8813   -4.8691   53.5922 H       1  ZINC000572257265    0.4300
     37 H37       -13.6572   -2.0957   56.9176 H       1  ZINC000572257265    0.1500
     38 H38       -11.7937   -1.3207   58.3282 H       1  ZINC000572257265    0.1500
     39 H39        -9.7642   -3.0012   61.7170 H       1  ZINC000572257265    0.4300
     40 H40       -11.0741   -1.0503   62.1818 H       1  ZINC000572257265    0.1100
     41 H41       -11.2492   -0.8017   60.4280 H       1  ZINC000572257265    0.1300
     42 H42       -10.1883   -5.2716   58.3779 H       1  ZINC000572257265    0.1600
     43 H43       -12.0538   -6.0474   56.9704 H       1  ZINC000572257265    0.1500
@<TRIPOS>BOND
     1     1     2    1
     2     1    25    1
     3     1    26    1
     4     1    27    1
     5     2     3    1
     6     3     4    1
     7     3    28    1
     8     3    29    1
     9     4     5    1
    10     4     6    1
    11     4     7    1
    12     5    30    1
    13     5    31    1
    14     5    32    1
    15     6    33    1
    16     7     8    1
    17     7    34    1
    18     7    35    1
    19     8     9   am
    20     8    36    1
    21     9    10    2
    22     9    11    2
    23     9    12    1
    24    12    24   ar
    25    12    13   ar
    26    13    14   ar
    27    13    37    1
    28    14    15   ar
    29    14    38    1
    30    15    16    1
    31    15    23   ar
    32    16    17    2
    33    16    18    2
    34    16    19   am
    35    19    20    1
    36    19    39    1
    37    20    21    1
    38    20    40    1
    39    20    41    1
    40    21    22    3
    41    23    24   ar
    42    23    42    1
    43    24    43    1
@<TRIPOS>SUBSTRUCTURE
     1 ZINC000572257265        1 TEMP              0 ****  ****    0 ROOT


##########                                Name:    ZINC000465642058
##########                DOCK_Rotatable_Bonds:                  10
##########                         Heavy_Atoms:                  31
##########                    Molecular_Weight:             420.511
##########                DOCK_Rotatable_Bonds:                  10
##########                       Formal_Charge:          1.2666e-07
##########                     HBond_Acceptors:                   7
##########                        HBond_Donors:                   2
##########                         Heavy_Atoms:                  31
##########                          Grid_Score:          -37.224552
##########                     Grid_vdw_energy:          -37.680386
##########                      Grid_es_energy:            0.455833
##########           Internal_energy_repulsive:           16.002468

@<TRIPOS>MOLECULE
ZINC000465642058
 59 62 1 0 0
SMALL
USER_CHARGES


@<TRIPOS>ATOM
      1 C1        -13.7160   -0.6510   51.7255 C.3     1  ZINC000465642058   -0.1500
      2 C2        -12.9689    0.3807   52.5732 C.3     1  ZINC000465642058    0.0500
      3 O3        -11.9266   -0.2682   53.3043 O.3     1  ZINC000465642058   -0.3000
      4 C4        -10.7033   -0.3280   52.7135 C.ar    1  ZINC000465642058    0.1200
      5 C5         -9.9870    0.8361   52.4733 C.ar    1  ZINC000465642058   -0.1600
      6 C6         -8.7477    0.7697   51.8759 C.ar    1  ZINC000465642058   -0.1300
      7 C7         -8.1968   -0.4522   51.5133 C.ar    1  ZINC000465642058    0.0700
      8 C8         -8.9223   -1.6167   51.7526 C.ar    1  ZINC000465642058   -0.0700
      9 C9        -10.1621   -1.5534   52.3532 C.ar    1  ZINC000465642058   -0.1100
     10 C10       -10.9378   -2.8201   52.6078 C.3     1  ZINC000465642058    0.1900
     11 N11       -11.0323   -3.0531   54.0510 N.am    1  ZINC000465642058   -0.7300
     12 C12       -11.9692   -3.8903   54.5386 C.2     1  ZINC000465642058    0.7100
     13 O13       -12.7370   -4.4511   53.7806 O.2     1  ZINC000465642058   -0.5900
     14 N14       -12.0551   -4.1059   55.8662 N.am    1  ZINC000465642058   -0.6200
     15 C15       -13.0748   -5.0146   56.3962 C.3     1  ZINC000465642058    0.1900
     16 C16       -14.3602   -4.2574   56.6095 C.2     1  ZINC000465642058    0.0500
     17 N17       -14.8415   -3.3266   55.8260 N.2     1  ZINC000465642058   -0.2700
     18 N18       -16.0497   -2.8756   56.3730 N.pl3   1  ZINC000465642058   -0.4700
     19 C19       -16.2750   -3.5675   57.5095 C.2     1  ZINC000465642058    0.0600
     20 C20       -15.2480   -4.4327   57.6761 C.2     1  ZINC000465642058   -0.2600
     21 C21       -11.1289   -3.4317   56.7793 C.3     1  ZINC000465642058    0.1700
     22 C22       -11.9122   -2.6691   57.8166 C.ar    1  ZINC000465642058   -0.1100
     23 C23       -11.9665   -3.1302   59.1187 C.ar    1  ZINC000465642058   -0.0900
     24 C24       -12.6851   -2.4307   60.0701 C.ar    1  ZINC000465642058   -0.1200
     25 C25       -13.3490   -1.2700   59.7196 C.ar    1  ZINC000465642058   -0.1200
     26 C26       -13.2940   -0.8085   58.4178 C.ar    1  ZINC000465642058   -0.1300
     27 C27       -12.5719   -1.5056   57.4673 C.ar    1  ZINC000465642058   -0.1100
     28 O28        -6.9614   -0.2916   50.9618 O.3     1  ZINC000465642058   -0.3000
     29 C29        -6.8122    1.0696   50.5237 C.3     1  ZINC000465642058    0.0800
     30 H30        -7.1389    1.1805   49.4898 H       1  ZINC000465642058    0.0900
     31 C31        -5.3637    1.5352   50.6853 C.3     1  ZINC000465642058   -0.1500
     32 C32        -7.7505    1.8419   51.4810 C.3     1  ZINC000465642058   -0.1100
     33 H33       -14.1476   -1.4117   52.3760 H       1  ZINC000465642058    0.0700
     34 H34       -14.5109   -0.1560   51.1679 H       1  ZINC000465642058    0.0800
     35 H35       -13.0214   -1.1203   51.0288 H       1  ZINC000465642058    0.0700
     36 H36       -12.5372    1.1414   51.9228 H       1  ZINC000465642058    0.0600
     37 H37       -13.6636    0.8500   53.2699 H       1  ZINC000465642058    0.0600
     38 H38       -10.4011    1.7933   52.7542 H       1  ZINC000465642058    0.1300
     39 H39        -8.5101   -2.5743   51.4704 H       1  ZINC000465642058    0.1400
     40 H40       -11.9394   -2.7231   52.1890 H       1  ZINC000465642058    0.0700
     41 H41       -10.4269   -3.6598   52.1369 H       1  ZINC000465642058    0.0800
     42 H42       -10.4206   -2.6049   54.6558 H       1  ZINC000465642058    0.4000
     43 H43       -13.2437   -5.8246   55.6868 H       1  ZINC000465642058    0.1000
     44 H44       -12.7348   -5.4280   57.3457 H       1  ZINC000465642058    0.0900
     45 H45       -16.6230   -2.1875   56.0006 H       1  ZINC000465642058    0.4400
     46 H46       -17.1249   -3.4540   58.1662 H       1  ZINC000465642058    0.1800
     47 H47       -15.1312   -5.1308   58.4919 H       1  ZINC000465642058    0.1500
     48 H48       -10.4997   -4.1732   57.2716 H       1  ZINC000465642058    0.0900
     49 H49       -10.5025   -2.7400   56.2160 H       1  ZINC000465642058    0.0900
     50 H50       -11.4478   -4.0370   59.3925 H       1  ZINC000465642058    0.1300
     51 H51       -12.7281   -2.7913   61.0873 H       1  ZINC000465642058    0.1200
     52 H52       -13.9109   -0.7239   60.4629 H       1  ZINC000465642058    0.1200
     53 H53       -13.8130    0.0982   58.1438 H       1  ZINC000465642058    0.1200
     54 H54       -12.5289   -1.1450   56.4502 H       1  ZINC000465642058    0.1200
     55 H55        -4.7122    0.9162   50.0686 H       1  ZINC000465642058    0.0700
     56 H56        -5.2796    2.5759   50.3720 H       1  ZINC000465642058    0.0800
     57 H57        -5.0677    1.4454   51.7305 H       1  ZINC000465642058    0.0700
     58 H58        -8.2459    2.6627   50.9625 H       1  ZINC000465642058    0.0900
     59 H59        -7.2048    2.2059   52.3515 H       1  ZINC000465642058    0.1000
@<TRIPOS>BOND
     1     1     2    1
     2     1    33    1
     3     1    34    1
     4     1    35    1
     5     2     3    1
     6     2    36    1
     7     2    37    1
     8     3     4    1
     9     4     9   ar
    10     4     5   ar
    11     5     6   ar
    12     5    38    1
    13     6    32    1
    14     6     7   ar
    15     7     8   ar
    16     7    28    1
    17     8     9   ar
    18     8    39    1
    19     9    10    1
    20    10    11    1
    21    10    40    1
    22    10    41    1
    23    11    12   am
    24    11    42    1
    25    12    13    2
    26    12    14   am
    27    14    15    1
    28    14    21    1
    29    15    16    1
    30    15    43    1
    31    15    44    1
    32    16    20    1
    33    16    17    2
    34    17    18    1
    35    18    19    1
    36    18    45    1
    37    19    20    2
    38    19    46    1
    39    20    47    1
    40    21    22    1
    41    21    48    1
    42    21    49    1
    43    22    27   ar
    44    22    23   ar
    45    23    24   ar
    46    23    50    1
    47    24    25   ar
    48    24    51    1
    49    25    26   ar
    50    25    52    1
    51    26    27   ar
    52    26    53    1
    53    27    54    1
    54    28    29    1
    55    29    30    1
    56    29    31    1
    57    29    32    1
    58    31    55    1
    59    31    56    1
    60    31    57    1
    61    32    58    1
    62    32    59    1
@<TRIPOS>SUBSTRUCTURE
     1 ZINC000465642058        1 TEMP              0 ****  ****    0 ROOT


##########                                Name:    ZINC000008416770
##########                DOCK_Rotatable_Bonds:                  13
##########                         Heavy_Atoms:                  30
##########                    Molecular_Weight:             412.442
##########                DOCK_Rotatable_Bonds:                  13
##########                       Formal_Charge:          -0.0199998
##########                     HBond_Acceptors:                   8
##########                        HBond_Donors:                   2
##########                         Heavy_Atoms:                  30
##########                          Grid_Score:          -37.182762
##########                     Grid_vdw_energy:          -37.505749
##########                      Grid_es_energy:            0.322987
##########           Internal_energy_repulsive:            8.004608

@<TRIPOS>MOLECULE
ZINC000008416770
 54 55 1 0 0
SMALL
USER_CHARGES


@<TRIPOS>ATOM
      1 C1         -5.7238    2.6820   52.1167 C.3     1  ZINC000008416770   -0.1500
      2 C2         -5.3917    3.7697   53.1402 C.3     1  ZINC000008416770    0.0600
      3 O3         -6.6209    4.2783   53.7221 O.3     1  ZINC000008416770   -0.3500
      4 C4         -7.1591    3.5675   54.7325 C.2     1  ZINC000008416770    0.5100
      5 O5         -6.8082    3.7765   55.8768 O.2     1  ZINC000008416770   -0.5100
      6 C6         -8.1742    2.5358   54.4494 C.ar    1  ZINC000008416770   -0.1500
      7 C7         -8.9363    2.6052   53.2794 C.ar    1  ZINC000008416770   -0.0400
      8 C8         -9.8825    1.6403   53.0181 C.ar    1  ZINC000008416770   -0.1400
      9 C9        -10.0809    0.5966   53.9168 C.ar    1  ZINC000008416770    0.1800
     10 N10       -11.0401   -0.3789   53.6489 N.am    1  ZINC000008416770   -0.6700
     11 C11       -10.7899   -1.3367   52.7343 C.2     1  ZINC000008416770    0.5200
     12 O12        -9.7303   -1.3501   52.1445 O.2     1  ZINC000008416770   -0.5100
     13 C13       -11.8268   -2.3912   52.4448 C.3     1  ZINC000008416770   -0.1300
     14 C14       -11.3680   -3.7305   53.0252 C.3     1  ZINC000008416770   -0.1000
     15 C15       -12.2310   -4.0874   54.2079 C.2     1  ZINC000008416770    0.4700
     16 O16       -13.1137   -4.9037   54.0874 O.2     1  ZINC000008416770   -0.5100
     17 O17       -12.0192   -3.4984   55.3954 O.3     1  ZINC000008416770   -0.3300
     18 C18       -11.7672   -4.3708   56.5284 C.3     1  ZINC000008416770    0.0500
     19 C19       -11.5852   -3.5392   57.7719 C.2     1  ZINC000008416770    0.5100
     20 O20       -12.5527   -3.1854   58.4121 O.2     1  ZINC000008416770   -0.4900
     21 N21       -10.3471   -3.1886   58.1728 N.am    1  ZINC000008416770   -0.6700
     22 C22       -10.1780   -2.4164   59.3273 C.ar    1  ZINC000008416770    0.1400
     23 C23       -10.6664   -1.1172   59.3733 C.ar    1  ZINC000008416770   -0.1400
     24 C24       -10.4978   -0.3576   60.5144 C.ar    1  ZINC000008416770   -0.1000
     25 C25        -9.8432   -0.8893   61.6102 C.ar    1  ZINC000008416770   -0.1000
     26 C26        -9.6606   -0.0575   62.8536 C.3     1  ZINC000008416770   -0.1200
     27 C27        -9.3561   -2.1828   61.5678 C.ar    1  ZINC000008416770   -0.1000
     28 C28        -9.5264   -2.9495   60.4318 C.ar    1  ZINC000008416770   -0.1200
     29 C29        -9.3237    0.5241   55.0821 C.ar    1  ZINC000008416770   -0.1600
     30 C30        -8.3724    1.4829   55.3475 C.ar    1  ZINC000008416770   -0.0300
     31 H31        -6.2557    1.8687   52.6105 H       1  ZINC000008416770    0.0700
     32 H32        -6.3513    3.1022   51.3307 H       1  ZINC000008416770    0.0700
     33 H33        -4.8011    2.3004   51.6798 H       1  ZINC000008416770    0.0800
     34 H34        -4.7641    3.3496   53.9261 H       1  ZINC000008416770    0.0700
     35 H35        -4.8598    4.5830   52.6464 H       1  ZINC000008416770    0.0700
     36 H36        -8.7831    3.4152   52.5817 H       1  ZINC000008416770    0.1400
     37 H37       -10.4718    1.6935   52.1147 H       1  ZINC000008416770    0.1400
     38 H38       -11.8876   -0.3683   54.1207 H       1  ZINC000008416770    0.4200
     39 H39       -12.7746   -2.1036   52.8999 H       1  ZINC000008416770    0.1100
     40 H40       -11.9558   -2.4876   51.3667 H       1  ZINC000008416770    0.1100
     41 H41       -11.4563   -4.5057   52.2640 H       1  ZINC000008416770    0.1200
     42 H42       -10.3289   -3.6513   53.3443 H       1  ZINC000008416770    0.1200
     43 H43       -12.6129   -5.0452   56.6628 H       1  ZINC000008416770    0.1100
     44 H44       -10.8640   -4.9528   56.3451 H       1  ZINC000008416770    0.1100
     45 H45        -9.5733   -3.4715   57.6609 H       1  ZINC000008416770    0.4100
     46 H46       -11.1771   -0.7011   58.5175 H       1  ZINC000008416770    0.1300
     47 H47       -10.8774    0.6528   60.5508 H       1  ZINC000008416770    0.1300
     48 H48       -10.5114   -0.2063   63.5184 H       1  ZINC000008416770    0.0700
     49 H49        -8.7450   -0.3600   63.3619 H       1  ZINC000008416770    0.0700
     50 H50        -9.5932    0.9954   62.5796 H       1  ZINC000008416770    0.0700
     51 H51        -8.8452   -2.5952   62.4254 H       1  ZINC000008416770    0.1300
     52 H52        -9.1457   -3.9598   60.3993 H       1  ZINC000008416770    0.1300
     53 H53        -9.4801   -0.2875   55.7772 H       1  ZINC000008416770    0.1400
     54 H54        -7.7852    1.4260   56.2521 H       1  ZINC000008416770    0.1400
@<TRIPOS>BOND
     1     1     2    1
     2     1    31    1
     3     1    32    1
     4     1    33    1
     5     2     3    1
     6     2    34    1
     7     2    35    1
     8     3     4    1
     9     4     5    2
    10     4     6    1
    11     6    30   ar
    12     6     7   ar
    13     7     8   ar
    14     7    36    1
    15     8     9   ar
    16     8    37    1
    17     9    10    1
    18     9    29   ar
    19    10    11   am
    20    10    38    1
    21    11    12    2
    22    11    13    1
    23    13    14    1
    24    13    39    1
    25    13    40    1
    26    14    15    1
    27    14    41    1
    28    14    42    1
    29    15    16    2
    30    15    17    1
    31    17    18    1
    32    18    19    1
    33    18    43    1
    34    18    44    1
    35    19    20    2
    36    19    21   am
    37    21    22    1
    38    21    45    1
    39    22    28   ar
    40    22    23   ar
    41    23    24   ar
    42    23    46    1
    43    24    25   ar
    44    24    47    1
    45    25    26    1
    46    25    27   ar
    47    26    48    1
    48    26    49    1
    49    26    50    1
    50    27    28   ar
    51    27    51    1
    52    28    52    1
    53    29    30   ar
    54    29    53    1
    55    30    54    1
@<TRIPOS>SUBSTRUCTURE
     1 ZINC000008416770        1 TEMP              0 ****  ****    0 ROOT


##########                                Name:    ZINC000790205345
##########                DOCK_Rotatable_Bonds:                   7
##########                         Heavy_Atoms:                  28
##########                    Molecular_Weight:             382.459
##########                DOCK_Rotatable_Bonds:                   7
##########                       Formal_Charge:          -0.0299997
##########                     HBond_Acceptors:                   6
##########                        HBond_Donors:                   0
##########                         Heavy_Atoms:                  28
##########                          Grid_Score:          -37.124718
##########                     Grid_vdw_energy:          -36.447739
##########                      Grid_es_energy:           -0.676980
##########           Internal_energy_repulsive:           25.723627

@<TRIPOS>MOLECULE
ZINC000790205345
 54 56 1 0 0
SMALL
USER_CHARGES


@<TRIPOS>ATOM
      1 C1        -11.5613    0.7333   62.8780 C.3     1  ZINC000790205345   -0.1100
      2 C2        -11.3100   -0.5269   62.0906 C.ar    1  ZINC000790205345   -0.1300
      3 C3        -10.0179   -0.9877   61.9199 C.ar    1  ZINC000790205345   -0.0800
      4 C4         -9.7848   -2.1431   61.1990 C.ar    1  ZINC000790205345   -0.2100
      5 C5        -10.8487   -2.8408   60.6463 C.ar    1  ZINC000790205345    0.1300
      6 O6        -10.6223   -3.9778   59.9371 O.3     1  ZINC000790205345   -0.2900
      7 C7         -9.8432   -3.8547   58.7454 C.3     1  ZINC000790205345    0.0400
      8 C8        -10.4369   -2.7849   57.8655 C.2     1  ZINC000790205345    0.5200
      9 O9         -9.9219   -1.6882   57.8127 O.2     1  ZINC000790205345   -0.5100
     10 N10       -11.5403   -3.0469   57.1373 N.am    1  ZINC000790205345   -0.6100
     11 C11       -12.1636   -4.3712   57.2026 C.3     1  ZINC000790205345    0.0700
     12 C12       -12.1165   -2.0076   56.2807 C.3     1  ZINC000790205345    0.1800
     13 H13       -11.8809   -1.0259   56.6918 H       1  ZINC000790205345    0.1200
     14 C14       -13.6351   -2.1828   56.2173 C.3     1  ZINC000790205345   -0.1600
     15 C15       -11.5392   -2.1229   54.8934 C.ar    1  ZINC000790205345   -0.0700
     16 C16       -11.8162   -3.2352   54.1204 C.ar    1  ZINC000790205345   -0.1300
     17 C17       -11.2879   -3.3449   52.8469 C.ar    1  ZINC000790205345   -0.0900
     18 C18       -10.4820   -2.3429   52.3435 C.ar    1  ZINC000790205345   -0.1500
     19 C19       -10.2022   -1.2241   53.1173 C.ar    1  ZINC000790205345    0.1800
     20 N20        -9.3861   -0.2067   52.6098 N.am    1  ZINC000790205345   -0.5700
     21 C21        -9.6048    1.2364   52.7922 C.3     1  ZINC000790205345    0.0600
     22 C22        -8.4272    1.8842   52.0386 C.3     1  ZINC000790205345    0.0400
     23 O23        -7.6763    0.7502   51.5159 O.3     1  ZINC000790205345   -0.3200
     24 C24        -8.2748   -0.3885   51.8833 C.2     1  ZINC000790205345    0.6400
     25 O25        -7.8538   -1.4870   51.5792 O.2     1  ZINC000790205345   -0.5000
     26 C26       -10.7384   -1.1145   54.3934 C.ar    1  ZINC000790205345   -0.1400
     27 C27       -12.1448   -2.3762   60.8191 C.ar    1  ZINC000790205345   -0.1500
     28 C28       -12.3728   -1.2236   61.5452 C.ar    1  ZINC000790205345   -0.0500
     29 C29       -13.7801   -0.7185   61.7338 C.3     1  ZINC000790205345   -0.1200
     30 H30       -11.7010    0.4830   63.9296 H       1  ZINC000790205345    0.0700
     31 H31       -10.7075    1.4029   62.7741 H       1  ZINC000790205345    0.0600
     32 H32       -12.4572    1.2255   62.4995 H       1  ZINC000790205345    0.0700
     33 H33        -9.1898   -0.4439   62.3501 H       1  ZINC000790205345    0.1300
     34 H34        -8.7752   -2.5025   61.0655 H       1  ZINC000790205345    0.1300
     35 H35        -8.8201   -3.5839   59.0065 H       1  ZINC000790205345    0.1000
     36 H36        -9.8427   -4.8051   58.2119 H       1  ZINC000790205345    0.0900
     37 H37       -12.8337   -4.4154   58.0610 H       1  ZINC000790205345    0.0600
     38 H38       -12.7306   -4.5511   56.2892 H       1  ZINC000790205345    0.0800
     39 H39       -11.3901   -5.1321   57.3059 H       1  ZINC000790205345    0.0700
     40 H40       -13.8707   -3.1644   55.8061 H       1  ZINC000790205345    0.0600
     41 H41       -14.0527   -2.0993   57.2206 H       1  ZINC000790205345    0.0700
     42 H42       -14.0638   -1.4095   55.5799 H       1  ZINC000790205345    0.0800
     43 H43       -12.4462   -4.0202   54.5118 H       1  ZINC000790205345    0.1300
     44 H44       -11.5055   -4.2153   52.2458 H       1  ZINC000790205345    0.1300
     45 H45       -10.0695   -2.4294   51.3491 H       1  ZINC000790205345    0.1300
     46 H46       -10.5545    1.5386   52.3509 H       1  ZINC000790205345    0.1000
     47 H47        -9.5726    1.4978   53.8499 H       1  ZINC000790205345    0.1000
     48 H48        -8.7926    2.5088   51.2234 H       1  ZINC000790205345    0.1100
     49 H49        -7.8110    2.4681   52.7221 H       1  ZINC000790205345    0.1100
     50 H50       -10.5229   -0.2456   54.9976 H       1  ZINC000790205345    0.1600
     51 H51       -12.9747   -2.9174   60.3896 H       1  ZINC000790205345    0.1300
     52 H52       -14.2045   -1.1547   62.6381 H       1  ZINC000790205345    0.0700
     53 H53       -13.7672    0.3675   61.8256 H       1  ZINC000790205345    0.0700
     54 H54       -14.3866   -1.0034   60.8740 H       1  ZINC000790205345    0.0700
@<TRIPOS>BOND
     1     1     2    1
     2     1    30    1
     3     1    31    1
     4     1    32    1
     5     2    28   ar
     6     2     3   ar
     7     3     4   ar
     8     3    33    1
     9     4     5   ar
    10     4    34    1
    11     5     6    1
    12     5    27   ar
    13     6     7    1
    14     7     8    1
    15     7    35    1
    16     7    36    1
    17     8     9    2
    18     8    10   am
    19    10    11    1
    20    10    12    1
    21    11    37    1
    22    11    38    1
    23    11    39    1
    24    12    13    1
    25    12    14    1
    26    12    15    1
    27    14    40    1
    28    14    41    1
    29    14    42    1
    30    15    26   ar
    31    15    16   ar
    32    16    17   ar
    33    16    43    1
    34    17    18   ar
    35    17    44    1
    36    18    19   ar
    37    18    45    1
    38    19    20    1
    39    19    26   ar
    40    20    24   am
    41    20    21    1
    42    21    22    1
    43    21    46    1
    44    21    47    1
    45    22    23    1
    46    22    48    1
    47    22    49    1
    48    23    24    1
    49    24    25    2
    50    26    50    1
    51    27    28   ar
    52    27    51    1
    53    28    29    1
    54    29    52    1
    55    29    53    1
    56    29    54    1
@<TRIPOS>SUBSTRUCTURE
     1 ZINC000790205345        1 TEMP              0 ****  ****    0 ROOT


##########                                Name:    ZINC001579482641
##########                DOCK_Rotatable_Bonds:                   5
##########                         Heavy_Atoms:                  26
##########                    Molecular_Weight:             355.359
##########                DOCK_Rotatable_Bonds:                   5
##########                       Formal_Charge:                0.05
##########                     HBond_Acceptors:                  11
##########                        HBond_Donors:                   1
##########                         Heavy_Atoms:                  26
##########                          Grid_Score:          -37.118977
##########                     Grid_vdw_energy:          -35.296993
##########                      Grid_es_energy:           -1.821984
##########           Internal_energy_repulsive:           12.643176

@<TRIPOS>MOLECULE
ZINC001579482641
 43 46 1 0 0
SMALL
USER_CHARGES


@<TRIPOS>ATOM
      1 C1        -15.8736   -1.7523   64.6103 C.3     1  ZINC001579482641    0.0300
      2 O2        -14.9443   -1.8794   63.5019 O.3     1  ZINC001579482641   -0.3300
      3 C3        -15.3399   -1.3859   62.3123 C.2     1  ZINC001579482641    0.5300
      4 O4        -16.0972   -0.4369   62.2700 O.2     1  ZINC001579482641   -0.4900
      5 C5        -14.8528   -1.9987   61.0594 C.ar    1  ZINC001579482641    0.0900
      6 C6        -15.7609   -2.3085   60.0455 C.ar    1  ZINC001579482641   -0.0800
      7 C7        -15.2999   -2.8821   58.8746 C.ar    1  ZINC001579482641   -0.1200
      8 C8        -13.9354   -3.1317   58.7485 C.ar    1  ZINC001579482641    0.1100
      9 N9        -13.4293   -3.7058   57.5903 N.3     1  ZINC001579482641   -0.4600
     10 C10       -14.0630   -5.0233   57.3283 C.3     1  ZINC001579482641    0.0400
     11 C11       -13.8037   -5.2473   55.8173 C.3     1  ZINC001579482641   -0.1100
     12 C12       -13.9637   -3.8283   55.2250 C.3     1  ZINC001579482641   -0.0100
     13 H13       -14.9682   -3.6973   54.8227 H       1  ZINC001579482641    0.0900
     14 C14       -12.9353   -3.5915   54.1492 C.2     1  ZINC001579482641    0.1800
     15 N15       -11.6910   -3.9853   54.1684 N.2     1  ZINC001579482641   -0.2600
     16 N16       -11.1020   -3.6116   53.0882 N.2     1  ZINC001579482641   -0.2900
     17 C17       -11.9437   -2.9624   52.3307 C.2     1  ZINC001579482641    0.1500
     18 N18       -13.1325   -2.9356   52.9802 N.pl3   1  ZINC001579482641   -0.4800
     19 C19       -14.3763   -2.3157   52.5165 C.3     1  ZINC001579482641    0.0700
     20 C20       -13.7328   -2.8701   56.4083 C.3     1  ZINC001579482641    0.0600
     21 C21       -13.0779   -2.7942   59.8095 C.ar    1  ZINC001579482641    0.2300
     22 C22       -11.6222   -3.0542   59.6898 C.2     1  ZINC001579482641    0.2100
     23 N23       -10.8058   -3.4232   60.6571 N.2     1  ZINC001579482641   -0.2600
     24 N24        -9.6265   -3.5463   60.1523 N.pl3   1  ZINC001579482641   -0.2300
     25 N25        -9.6694   -3.2670   58.8964 N.2     1  ZINC001579482641   -0.0500
     26 N26       -10.8817   -2.9651   58.5755 N.2     1  ZINC001579482641   -0.2000
     27 N27       -13.5560   -2.2427   60.9101 N.ar    1  ZINC001579482641   -0.4000
     28 H28       -16.7996   -2.2747   64.3698 H       1  ZINC001579482641    0.0700
     29 H29       -15.4323   -2.1889   65.5063 H       1  ZINC001579482641    0.1100
     30 H30       -16.0865   -0.6980   64.7868 H       1  ZINC001579482641    0.0700
     31 H31       -16.8133   -2.1027   60.1745 H       1  ZINC001579482641    0.1600
     32 H32       -15.9827   -3.1313   58.0758 H       1  ZINC001579482641    0.1600
     33 H33       -13.5860   -5.8043   57.9205 H       1  ZINC001579482641    0.1000
     34 H34       -15.1329   -4.9831   57.5333 H       1  ZINC001579482641    0.0600
     35 H35       -12.7942   -5.6232   55.6508 H       1  ZINC001579482641    0.1000
     36 H36       -14.5440   -5.9271   55.3955 H       1  ZINC001579482641    0.0800
     37 H37       -11.7327   -2.5303   51.3636 H       1  ZINC001579482641    0.2200
     38 H38       -14.9535   -3.0426   51.9451 H       1  ZINC001579482641    0.0800
     39 H39       -14.9590   -1.9834   53.3756 H       1  ZINC001579482641    0.0900
     40 H40       -14.1417   -1.4597   51.8836 H       1  ZINC001579482641    0.0900
     41 H41       -14.6321   -2.2817   56.5905 H       1  ZINC001579482641    0.0600
     42 H42       -12.8917   -2.2110   56.1937 H       1  ZINC001579482641    0.1000
     43 H43        -8.8311   -3.8079   60.6420 H       1  ZINC001579482641    0.4800
@<TRIPOS>BOND
     1     1     2    1
     2     1    28    1
     3     1    29    1
     4     1    30    1
     5     2     3    1
     6     3     4    2
     7     3     5    1
     8     5    27   ar
     9     5     6   ar
    10     6     7   ar
    11     6    31    1
    12     7     8   ar
    13     7    32    1
    14     8     9    1
    15     8    21   ar
    16     9    20    1
    17     9    10    1
    18    10    11    1
    19    10    33    1
    20    10    34    1
    21    11    12    1
    22    11    35    1
    23    11    36    1
    24    12    13    1
    25    12    14    1
    26    12    20    1
    27    14    18    1
    28    14    15    2
    29    15    16    1
    30    16    17    2
    31    17    18    1
    32    17    37    1
    33    18    19    1
    34    19    38    1
    35    19    39    1
    36    19    40    1
    37    20    41    1
    38    20    42    1
    39    21    22    1
    40    21    27   ar
    41    22    26    1
    42    22    23    2
    43    23    24    1
    44    24    25    1
    45    24    43    1
    46    25    26    2
@<TRIPOS>SUBSTRUCTURE
     1 ZINC001579482641        1 TEMP              0 ****  ****    0 ROOT


##########                                Name:    ZINC000671418508
##########                DOCK_Rotatable_Bonds:                   9
##########                         Heavy_Atoms:                  28
##########                    Molecular_Weight:             405.884
##########                DOCK_Rotatable_Bonds:                   9
##########                       Formal_Charge:         -1.3411e-07
##########                     HBond_Acceptors:                   9
##########                        HBond_Donors:                   2
##########                         Heavy_Atoms:                  28
##########                          Grid_Score:          -37.070419
##########                     Grid_vdw_energy:          -37.978123
##########                      Grid_es_energy:            0.907704
##########           Internal_energy_repulsive:           19.360403

@<TRIPOS>MOLECULE
ZINC000671418508
 52 54 1 0 0
SMALL
USER_CHARGES


@<TRIPOS>ATOM
      1 C1         -5.2110    1.2299   49.8632 C.3     1  ZINC000671418508    0.1000
      2 N2         -6.4058    0.7077   50.5311 N.pl3   1  ZINC000671418508   -0.3700
      3 C3         -7.3583    1.4423   51.1429 C.2     1  ZINC000671418508    0.0800
      4 C4         -8.2874    0.5884   51.6314 C.2     1  ZINC000671418508   -0.2700
      5 C5         -9.5319    0.9715   52.3901 C.3     1  ZINC000671418508    0.2000
      6 N6        -10.5364   -0.0851   52.2459 N.am    1  ZINC000671418508   -0.6900
      7 C7        -11.8481    0.2222   52.2861 C.2     1  ZINC000671418508    0.5100
      8 O8        -12.1970    1.3738   52.4432 O.2     1  ZINC000671418508   -0.5100
      9 C9        -12.8728   -0.8554   52.1372 C.2     1  ZINC000671418508    0.5100
     10 O10       -13.2804   -1.1570   51.0347 O.2     1  ZINC000671418508   -0.5200
     11 N11       -13.3444   -1.4923   53.2274 N.am    1  ZINC000671418508   -0.5800
     12 C12       -14.3484   -2.5598   53.1028 C.3     1  ZINC000671418508    0.0800
     13 C13       -13.8529   -3.7867   53.8756 C.3     1  ZINC000671418508    0.0400
     14 N14       -13.5301   -3.3956   55.2542 N.3     1  ZINC000671418508   -0.5200
     15 C15       -13.2156   -4.5723   56.0753 C.3     1  ZINC000671418508    0.1300
     16 H16       -12.6091   -5.2683   55.4958 H       1  ZINC000671418508    0.0600
     17 C17       -14.5148   -5.2597   56.5003 C.3     1  ZINC000671418508    0.0900
     18 O18       -14.2641   -6.6460   56.7392 O.3     1  ZINC000671418508   -0.5500
     19 C19       -12.4519   -4.1403   57.3005 C.ar    1  ZINC000671418508   -0.0800
     20 C20       -13.0463   -3.3022   58.2254 C.ar    1  ZINC000671418508   -0.0600
     21 C21       -12.3463   -2.9056   59.3493 C.ar    1  ZINC000671418508   -0.1200
     22 C22       -11.0506   -3.3477   59.5487 C.ar    1  ZINC000671418508   -0.0300
     23 Cl23      -10.1710   -2.8505   60.9603 Cl      1  ZINC000671418508   -0.0700
     24 C24       -10.4562   -4.1865   58.6228 C.ar    1  ZINC000671418508   -0.1200
     25 C25       -11.1592   -4.5869   57.5022 C.ar    1  ZINC000671418508   -0.1100
     26 C26       -12.4313   -2.4210   55.2882 C.3     1  ZINC000671418508    0.0400
     27 C27       -12.8641   -1.1424   54.5728 C.3     1  ZINC000671418508    0.1100
     28 C28        -7.8891   -0.7125   51.3070 C.2     1  ZINC000671418508    0.0700
     29 N29        -6.7644   -0.6418   50.6421 N.2     1  ZINC000671418508   -0.2900
     30 H30        -5.4368    1.4251   48.8148 H       1  ZINC000671418508    0.0800
     31 H31        -4.9001    2.1562   50.3465 H       1  ZINC000671418508    0.0900
     32 H32        -4.4071    0.4969   49.9313 H       1  ZINC000671418508    0.0900
     33 H33        -7.3756    2.5188   51.2278 H       1  ZINC000671418508    0.1800
     34 H34        -9.2890    1.1005   53.4449 H       1  ZINC000671418508    0.0800
     35 H35        -9.9273    1.9057   51.9914 H       1  ZINC000671418508    0.0800
     36 H36       -10.2576   -1.0057   52.1215 H       1  ZINC000671418508    0.4100
     37 H37       -15.2963   -2.2216   53.5214 H       1  ZINC000671418508    0.0800
     38 H38       -14.4802   -2.8175   52.0519 H       1  ZINC000671418508    0.1400
     39 H39       -14.6322   -4.5487   53.8866 H       1  ZINC000671418508    0.0900
     40 H40       -12.9609   -4.1852   53.3921 H       1  ZINC000671418508    0.0400
     41 H41       -14.8898   -4.7957   57.4125 H       1  ZINC000671418508    0.0500
     42 H42       -15.2566   -5.1558   55.7084 H       1  ZINC000671418508    0.0500
     43 H43       -13.4391   -6.8206   57.2125 H       1  ZINC000671418508    0.3800
     44 H44       -14.0576   -2.9568   58.0695 H       1  ZINC000671418508    0.1400
     45 H45       -12.8106   -2.2505   60.0715 H       1  ZINC000671418508    0.1300
     46 H46        -9.4447   -4.5316   58.7778 H       1  ZINC000671418508    0.1300
     47 H47       -10.6955   -5.2420   56.7795 H       1  ZINC000671418508    0.1300
     48 H48       -12.1796   -2.1927   56.3239 H       1  ZINC000671418508    0.0900
     49 H49       -11.5592   -2.8386   54.7851 H       1  ZINC000671418508    0.0400
     50 H50       -12.0165   -0.4614   54.4952 H       1  ZINC000671418508    0.1000
     51 H51       -13.6703   -0.6657   55.1305 H       1  ZINC000671418508    0.0800
     52 H52        -8.4207   -1.6186   51.5576 H       1  ZINC000671418508    0.1900
@<TRIPOS>BOND
     1     1     2    1
     2     1    30    1
     3     1    31    1
     4     1    32    1
     5     2    29    1
     6     2     3    1
     7     3     4    2
     8     3    33    1
     9     4     5    1
    10     4    28    1
    11     5     6    1
    12     5    34    1
    13     5    35    1
    14     6     7   am
    15     6    36    1
    16     7     8    2
    17     7     9    1
    18     9    10    2
    19     9    11   am
    20    11    27    1
    21    11    12    1
    22    12    13    1
    23    12    37    1
    24    12    38    1
    25    13    14    1
    26    13    39    1
    27    13    40    1
    28    14    15    1
    29    14    26    1
    30    15    16    1
    31    15    17    1
    32    15    19    1
    33    17    18    1
    34    17    41    1
    35    17    42    1
    36    18    43    1
    37    19    25   ar
    38    19    20   ar
    39    20    21   ar
    40    20    44    1
    41    21    22   ar
    42    21    45    1
    43    22    23    1
    44    22    24   ar
    45    24    25   ar
    46    24    46    1
    47    25    47    1
    48    26    27    1
    49    26    48    1
    50    26    49    1
    51    27    50    1
    52    27    51    1
    53    28    29    2
    54    28    52    1
@<TRIPOS>SUBSTRUCTURE
     1 ZINC000671418508        1 TEMP              0 ****  ****    0 ROOT


##########                                Name:    ZINC000772422035
##########                DOCK_Rotatable_Bonds:                  10
##########                         Heavy_Atoms:                  25
##########                    Molecular_Weight:             348.399
##########                DOCK_Rotatable_Bonds:                  10
##########                       Formal_Charge:          0.00999987
##########                     HBond_Acceptors:                   7
##########                        HBond_Donors:                   0
##########                         Heavy_Atoms:                  25
##########                          Grid_Score:          -37.064312
##########                     Grid_vdw_energy:          -36.782665
##########                      Grid_es_energy:           -0.281648
##########           Internal_energy_repulsive:           15.007977

@<TRIPOS>MOLECULE
ZINC000772422035
 49 50 1 0 0
SMALL
USER_CHARGES


@<TRIPOS>ATOM
      1 C1         -4.4655    1.3343   50.0104 C.3     1  ZINC000772422035    0.0300
      2 O2         -5.5765    0.8767   50.7838 O.3     1  ZINC000772422035   -0.3900
      3 C3         -6.7239    1.7253   50.7116 C.3     1  ZINC000772422035    0.0600
      4 C4         -7.8089    1.1969   51.6520 C.3     1  ZINC000772422035    0.0700
      5 O5         -8.0958   -0.1656   51.3305 O.3     1  ZINC000772422035   -0.3000
      6 C6         -9.0909   -0.7670   52.0295 C.ar    1  ZINC000772422035    0.3300
      7 C7         -9.7085   -0.0865   53.0707 C.ar    1  ZINC000772422035   -0.1700
      8 C8        -10.7225   -0.7113   53.7760 C.ar    1  ZINC000772422035   -0.0200
      9 C9        -11.4182   -0.0071   54.9123 C.3     1  ZINC000772422035    0.1100
     10 O10       -10.7497   -0.3263   56.1611 O.3     1  ZINC000772422035   -0.3500
     11 C11       -11.3475    0.0780   57.2930 C.2     1  ZINC000772422035    0.4700
     12 O12       -12.1570    0.9745   57.2616 O.2     1  ZINC000772422035   -0.5000
     13 C13       -11.0088   -0.5860   58.6026 C.3     1  ZINC000772422035   -0.1100
     14 C14       -11.8135   -1.8800   58.7414 C.3     1  ZINC000772422035    0.0000
     15 H15       -12.2794   -2.1223   57.7862 H       1  ZINC000772422035    0.1000
     16 C16       -12.8974   -1.6950   59.8052 C.3     1  ZINC000772422035   -0.1500
     17 C17       -10.8941   -3.0018   59.1507 C.2     1  ZINC000772422035   -0.2000
     18 C18       -10.8023   -4.2424   58.6150 C.2     1  ZINC000772422035   -0.0200
     19 C19       -11.6122   -4.7928   57.4695 C.3     1  ZINC000772422035   -0.0800
     20 O20        -9.8488   -4.8840   59.3050 O.3     1  ZINC000772422035    0.1000
     21 N21        -9.3760   -4.1817   60.1683 N.2     1  ZINC000772422035   -0.3600
     22 C22        -9.9236   -3.0007   60.1787 C.2     1  ZINC000772422035    0.0300
     23 C23        -9.5949   -1.8614   61.1087 C.3     1  ZINC000772422035   -0.0800
     24 C24       -11.0842   -2.0009   53.4125 C.ar    1  ZINC000772422035   -0.1900
     25 C25       -10.4268   -2.6175   52.3662 C.ar    1  ZINC000772422035    0.1400
     26 N26        -9.4675   -1.9940   51.7091 N.ar    1  ZINC000772422035   -0.5300
     27 H27        -3.6354    0.6361   50.1182 H       1  ZINC000772422035    0.0900
     28 H28        -4.7541    1.3965   48.9612 H       1  ZINC000772422035    0.0400
     29 H29        -4.1593    2.3197   50.3620 H       1  ZINC000772422035    0.0400
     30 H30        -6.4470    2.7369   51.0085 H       1  ZINC000772422035    0.0600
     31 H31        -7.1031    1.7376   49.6897 H       1  ZINC000772422035    0.0700
     32 H32        -7.4595    1.2612   52.6825 H       1  ZINC000772422035    0.0800
     33 H33        -8.7126    1.7955   51.5368 H       1  ZINC000772422035    0.0800
     34 H34        -9.4014    0.9167   53.3271 H       1  ZINC000772422035    0.1400
     35 H35       -11.3848    1.0698   54.7473 H       1  ZINC000772422035    0.0900
     36 H36       -12.4565   -0.3351   54.9618 H       1  ZINC000772422035    0.0900
     37 H37        -9.9437   -0.8159   58.6287 H       1  ZINC000772422035    0.1100
     38 H38       -11.2559    0.0853   59.4250 H       1  ZINC000772422035    0.1100
     39 H39       -12.4437   -1.3296   60.7265 H       1  ZINC000772422035    0.0600
     40 H40       -13.6339   -0.9733   59.4518 H       1  ZINC000772422035    0.0800
     41 H41       -13.3868   -2.6503   59.9951 H       1  ZINC000772422035    0.0600
     42 H42       -11.1477   -4.5068   56.5258 H       1  ZINC000772422035    0.0900
     43 H43       -11.6506   -5.8798   57.5410 H       1  ZINC000772422035    0.0900
     44 H44       -12.6240   -4.3899   57.5133 H       1  ZINC000772422035    0.0900
     45 H45        -8.8617   -1.2073   60.6371 H       1  ZINC000772422035    0.0800
     46 H46       -10.5011   -1.2955   61.3246 H       1  ZINC000772422035    0.0800
     47 H47        -9.1841   -2.2575   62.0376 H       1  ZINC000772422035    0.0800
     48 H48       -11.8712   -2.5170   53.9424 H       1  ZINC000772422035    0.1400
     49 H49       -10.7045   -3.6209   52.0794 H       1  ZINC000772422035    0.1700
@<TRIPOS>BOND
     1     1     2    1
     2     1    27    1
     3     1    28    1
     4     1    29    1
     5     2     3    1
     6     3     4    1
     7     3    30    1
     8     3    31    1
     9     4     5    1
    10     4    32    1
    11     4    33    1
    12     5     6    1
    13     6    26   ar
    14     6     7   ar
    15     7     8   ar
    16     7    34    1
    17     8     9    1
    18     8    24   ar
    19     9    10    1
    20     9    35    1
    21     9    36    1
    22    10    11    1
    23    11    12    2
    24    11    13    1
    25    13    14    1
    26    13    37    1
    27    13    38    1
    28    14    15    1
    29    14    16    1
    30    14    17    1
    31    16    39    1
    32    16    40    1
    33    16    41    1
    34    17    22    1
    35    17    18    2
    36    18    19    1
    37    18    20    1
    38    19    42    1
    39    19    43    1
    40    19    44    1
    41    20    21    1
    42    21    22    2
    43    22    23    1
    44    23    45    1
    45    23    46    1
    46    23    47    1
    47    24    25   ar
    48    24    48    1
    49    25    26   ar
    50    25    49    1
@<TRIPOS>SUBSTRUCTURE
     1 ZINC000772422035        1 TEMP              0 ****  ****    0 ROOT


##########                                Name:    ZINC000437192871
##########                DOCK_Rotatable_Bonds:                   9
##########                         Heavy_Atoms:                  28
##########                    Molecular_Weight:             423.298
##########                DOCK_Rotatable_Bonds:                   9
##########                       Formal_Charge:         -8.9407e-08
##########                     HBond_Acceptors:                   9
##########                        HBond_Donors:                   1
##########                         Heavy_Atoms:                  28
##########                          Grid_Score:          -37.064129
##########                     Grid_vdw_energy:          -35.056820
##########                      Grid_es_energy:           -2.007309
##########           Internal_energy_repulsive:           14.639850

@<TRIPOS>MOLECULE
ZINC000437192871
 48 50 1 0 0
SMALL
USER_CHARGES


@<TRIPOS>ATOM
      1 C1        -10.2877    1.3936   63.7619 C.3     1  ZINC000437192871   -0.1700
      2 C2        -11.0811    0.1148   64.0378 C.3     1  ZINC000437192871    0.1300
      3 N3        -11.8634   -0.2402   62.8512 N.pl3   1  ZINC000437192871   -0.3600
      4 C4        -11.4551   -1.0343   61.8394 C.2     1  ZINC000437192871    0.0700
      5 C5        -12.4651   -1.1113   60.9421 C.2     1  ZINC000437192871   -0.2700
      6 C6        -12.4489   -1.8932   59.6540 C.3     1  ZINC000437192871    0.1900
      7 N7        -11.6547   -1.1729   58.6555 N.am    1  ZINC000437192871   -0.6000
      8 C8        -11.7379    0.2871   58.5677 C.3     1  ZINC000437192871    0.1100
      9 C9        -10.5153    0.9092   59.2455 C.3     1  ZINC000437192871    0.0600
     10 O10        -9.6116    1.3907   58.2489 O.3     1  ZINC000437192871   -0.5600
     11 C11       -10.8476   -1.8535   57.8178 C.2     1  ZINC000437192871    0.6000
     12 O12       -10.1884   -1.2557   56.9888 O.2     1  ZINC000437192871   -0.5000
     13 C13       -10.7639   -3.3212   57.9062 C.2     1  ZINC000437192871   -0.2200
     14 C14       -10.0581   -4.0858   58.8005 C.2     1  ZINC000437192871    0.0100
     15 C15        -9.1864   -3.5849   59.9231 C.3     1  ZINC000437192871   -0.0800
     16 O16       -10.2952   -5.3603   58.4818 O.3     1  ZINC000437192871    0.1100
     17 N17       -11.0332   -5.4884   57.5360 N.2     1  ZINC000437192871   -0.3200
     18 C18       -11.4249   -4.3348   57.0574 C.2     1  ZINC000437192871    0.0800
     19 C19       -12.3292   -4.0963   55.9067 C.ar    1  ZINC000437192871   -0.0200
     20 C20       -11.8649   -3.4176   54.7815 C.ar    1  ZINC000437192871   -0.0700
     21 C21       -12.7101   -3.1986   53.7130 C.ar    1  ZINC000437192871   -0.1000
     22 C22       -14.0178   -3.6516   53.7567 C.ar    1  ZINC000437192871   -0.0100
     23 Cl23      -15.0751   -3.3727   52.4083 Cl      1  ZINC000437192871   -0.0500
     24 C24       -14.4850   -4.3264   54.8715 C.ar    1  ZINC000437192871   -0.1100
     25 C25       -13.6461   -4.5556   55.9442 C.ar    1  ZINC000437192871    0.0000
     26 Cl26      -14.2325   -5.4024   57.3416 Cl      1  ZINC000437192871   -0.0300
     27 C27       -13.5270   -0.3377   61.4220 C.2     1  ZINC000437192871    0.0600
     28 N28       -13.1697    0.1801   62.5692 N.2     1  ZINC000437192871   -0.2900
     29 H29        -9.7056    1.6577   64.6448 H       1  ZINC000437192871    0.0800
     30 H30        -9.6158    1.2298   62.9194 H       1  ZINC000437192871    0.0600
     31 H31       -10.9765    2.2045   63.5249 H       1  ZINC000437192871    0.0700
     32 H32       -10.3922   -0.6961   64.2748 H       1  ZINC000437192871    0.1000
     33 H33       -11.7529    0.2787   64.8802 H       1  ZINC000437192871    0.0900
     34 H34       -10.4943   -1.5210   61.7599 H       1  ZINC000437192871    0.1600
     35 H35       -12.0079   -2.8744   59.8300 H       1  ZINC000437192871    0.0900
     36 H36       -13.4689   -2.0134   59.2890 H       1  ZINC000437192871    0.0800
     37 H37       -11.7645    0.5872   57.5202 H       1  ZINC000437192871    0.1000
     38 H38       -12.6440    0.6301   59.0671 H       1  ZINC000437192871    0.1000
     39 H39       -10.8332    1.7377   59.8785 H       1  ZINC000437192871    0.0600
     40 H40       -10.0159    0.1566   59.8557 H       1  ZINC000437192871    0.0500
     41 H41        -8.8376    1.8464   58.6070 H       1  ZINC000437192871    0.3800
     42 H42        -9.7637   -3.5586   60.8473 H       1  ZINC000437192871    0.1000
     43 H43        -8.3334   -4.2522   60.0463 H       1  ZINC000437192871    0.0900
     44 H44        -8.8317   -2.5814   59.6877 H       1  ZINC000437192871    0.0900
     45 H45       -10.8453   -3.0634   54.7460 H       1  ZINC000437192871    0.1600
     46 H46       -12.3510   -2.6724   52.8409 H       1  ZINC000437192871    0.1500
     47 H47       -15.5058   -4.6777   54.9006 H       1  ZINC000437192871    0.1500
     48 H48       -14.4792   -0.1964   60.9326 H       1  ZINC000437192871    0.1800
@<TRIPOS>BOND
     1     1     2    1
     2     1    29    1
     3     1    30    1
     4     1    31    1
     5     2     3    1
     6     2    32    1
     7     2    33    1
     8     3    28    1
     9     3     4    1
    10     4     5    2
    11     4    34    1
    12     5     6    1
    13     5    27    1
    14     6     7    1
    15     6    35    1
    16     6    36    1
    17     7     8    1
    18     7    11   am
    19     8     9    1
    20     8    37    1
    21     8    38    1
    22     9    10    1
    23     9    39    1
    24     9    40    1
    25    10    41    1
    26    11    12    2
    27    11    13    1
    28    13    18    1
    29    13    14    2
    30    14    15    1
    31    14    16    1
    32    15    42    1
    33    15    43    1
    34    15    44    1
    35    16    17    1
    36    17    18    2
    37    18    19    1
    38    19    25   ar
    39    19    20   ar
    40    20    21   ar
    41    20    45    1
    42    21    22   ar
    43    21    46    1
    44    22    23    1
    45    22    24   ar
    46    24    25   ar
    47    24    47    1
    48    25    26    1
    49    27    28    2
    50    27    48    1
@<TRIPOS>SUBSTRUCTURE
     1 ZINC000437192871        1 TEMP              0 ****  ****    0 ROOT


##########                                Name:    ZINC000626935317
##########                DOCK_Rotatable_Bonds:                   6
##########                         Heavy_Atoms:                  25
##########                    Molecular_Weight:             366.441
##########                DOCK_Rotatable_Bonds:                   6
##########                       Formal_Charge:          -0.0200006
##########                     HBond_Acceptors:                   9
##########                        HBond_Donors:                   2
##########                         Heavy_Atoms:                  25
##########                          Grid_Score:          -36.987537
##########                     Grid_vdw_energy:          -36.183559
##########                      Grid_es_energy:           -0.803980
##########           Internal_energy_repulsive:           14.668314

@<TRIPOS>MOLECULE
ZINC000626935317
 47 49 1 0 0
SMALL
USER_CHARGES


@<TRIPOS>ATOM
      1 C1        -14.8208   -4.0562   54.5800 C.3     1  ZINC000626935317    0.0900
      2 N2        -13.7404   -4.1032   55.5683 N.am    1  ZINC000626935317   -0.6200
      3 C3        -13.6168   -5.0520   56.5124 C.2     1  ZINC000626935317    0.5200
      4 O4        -14.3823   -5.9795   56.6694 O.2     1  ZINC000626935317   -0.5200
      5 C5        -12.3839   -4.7947   57.3505 C.3     1  ZINC000626935317   -0.1500
      6 C6        -11.5580   -3.7918   56.5119 C.3     1  ZINC000626935317   -0.1200
      7 H7        -10.8349   -4.3113   55.8833 H       1  ZINC000626935317    0.1200
      8 C8        -10.8724   -2.7839   57.3981 C.2     1  ZINC000626935317    0.5300
      9 O9        -10.6784   -1.6561   56.9967 O.2     1  ZINC000626935317   -0.5200
     10 N10       -10.4748   -3.1361   58.6368 N.am    1  ZINC000626935317   -0.7100
     11 C11        -9.8067   -2.1569   59.4978 C.3     1  ZINC000626935317    0.1200
     12 C12       -10.7096   -0.9829   59.9116 C.3     1  ZINC000626935317   -0.1600
     13 C13       -11.1321   -1.8360   61.1193 C.3     1  ZINC000626935317    0.1200
     14 N14       -12.2872   -2.6971   60.8542 N.am    1  ZINC000626935317   -1.1100
     15 S15       -13.8173   -2.1531   61.1784 S.o2    1  ZINC000626935317    2.6100
     16 C16       -14.0020   -0.6768   60.1406 C.3     1  ZINC000626935317   -0.6700
     17 O17       -14.6652   -3.1960   60.7172 O.2     1  ZINC000626935317   -0.9500
     18 O18       -13.7780   -1.7947   62.5529 O.2     1  ZINC000626935317   -0.9500
     19 C19        -9.7811   -2.5579   60.9822 C.3     1  ZINC000626935317   -0.1600
     20 C20       -12.6504   -3.1238   55.6509 C.3     1  ZINC000626935317    0.2000
     21 H21       -13.0058   -2.2128   56.1324 H       1  ZINC000626935317    0.1100
     22 C22       -12.1138   -2.8117   54.2777 C.ar    1  ZINC000626935317   -0.1600
     23 C23       -11.9235   -1.4972   53.8805 C.ar    1  ZINC000626935317   -0.0500
     24 C24       -11.4272   -1.2576   52.6080 C.ar    1  ZINC000626935317   -0.1700
     25 C25       -11.1408   -2.3292   51.7841 C.ar    1  ZINC000626935317    0.1000
     26 N26       -11.3344   -3.5672   52.1955 N.ar    1  ZINC000626935317   -0.4800
     27 C27       -11.7998   -3.8326   53.4003 C.ar    1  ZINC000626935317    0.1200
     28 H28       -14.5262   -4.6166   53.6927 H       1  ZINC000626935317    0.0600
     29 H29       -15.7221   -4.4974   55.0057 H       1  ZINC000626935317    0.0800
     30 H30       -15.0180   -3.0197   54.3063 H       1  ZINC000626935317    0.0700
     31 H31       -12.6591   -4.3549   58.3090 H       1  ZINC000626935317    0.1100
     32 H32       -11.8247   -5.7182   57.4999 H       1  ZINC000626935317    0.1200
     33 H33       -10.6311   -4.0378   58.9585 H       1  ZINC000626935317    0.4000
     34 H34        -8.8352   -1.8476   59.1123 H       1  ZINC000626935317    0.1100
     35 H35       -10.1583   -0.0830   60.1841 H       1  ZINC000626935317    0.1100
     36 H36       -11.5206   -0.7875   59.2099 H       1  ZINC000626935317    0.0800
     37 H37       -11.2323   -1.2659   62.0429 H       1  ZINC000626935317    0.1100
     38 H38       -12.1558   -3.5861   60.4889 H       1  ZINC000626935317    0.4100
     39 H39       -13.8814   -0.9517   59.0928 H       1  ZINC000626935317    0.1300
     40 H40       -14.9927   -0.2479   60.2919 H       1  ZINC000626935317    0.1300
     41 H41       -13.2431    0.0565   60.4135 H       1  ZINC000626935317    0.1300
     42 H42        -9.8425   -3.6340   61.1449 H       1  ZINC000626935317    0.0900
     43 H43        -8.9760   -2.0886   61.5474 H       1  ZINC000626935317    0.1100
     44 H44       -12.1566   -0.6794   54.5461 H       1  ZINC000626935317    0.1400
     45 H45       -11.2668   -0.2460   52.2652 H       1  ZINC000626935317    0.1400
     46 H46       -10.7543   -2.1510   50.7915 H       1  ZINC000626935317    0.1600
     47 H47       -11.9453   -4.8593   53.7021 H       1  ZINC000626935317    0.1500
@<TRIPOS>BOND
     1     1     2    1
     2     1    28    1
     3     1    29    1
     4     1    30    1
     5     2    20    1
     6     2     3   am
     7     3     4    2
     8     3     5    1
     9     5     6    1
    10     5    31    1
    11     5    32    1
    12     6     7    1
    13     6     8    1
    14     6    20    1
    15     8     9    2
    16     8    10   am
    17    10    11    1
    18    10    33    1
    19    11    19    1
    20    11    12    1
    21    11    34    1
    22    12    13    1
    23    12    35    1
    24    12    36    1
    25    13    14    1
    26    13    19    1
    27    13    37    1
    28    14    15   am
    29    14    38    1
    30    15    16    1
    31    15    17    2
    32    15    18    2
    33    16    39    1
    34    16    40    1
    35    16    41    1
    36    19    42    1
    37    19    43    1
    38    20    21    1
    39    20    22    1
    40    22    27   ar
    41    22    23   ar
    42    23    24   ar
    43    23    44    1
    44    24    25   ar
    45    24    45    1
    46    25    26   ar
    47    25    46    1
    48    26    27   ar
    49    27    47    1
@<TRIPOS>SUBSTRUCTURE
     1 ZINC000626935317        1 TEMP              0 ****  ****    0 ROOT


##########                                Name:    ZINC001340305486
##########                DOCK_Rotatable_Bonds:                   8
##########                         Heavy_Atoms:                  27
##########                    Molecular_Weight:             378.431
##########                DOCK_Rotatable_Bonds:                   8
##########                       Formal_Charge:          0.00999955
##########                     HBond_Acceptors:                  10
##########                        HBond_Donors:                   2
##########                         Heavy_Atoms:                  27
##########                          Grid_Score:          -36.980328
##########                     Grid_vdw_energy:          -36.327923
##########                      Grid_es_energy:           -0.652405
##########           Internal_energy_repulsive:           10.635901

@<TRIPOS>MOLECULE
ZINC001340305486
 53 55 1 0 0
SMALL
USER_CHARGES


@<TRIPOS>ATOM
      1 C1         -9.0479    0.1441   52.9428 C.3     1  ZINC001340305486    0.0900
      2 N2        -10.1711   -0.5955   53.5235 N.am    1  ZINC001340305486   -0.7300
      3 C3        -10.7826   -1.5618   52.8101 C.2     1  ZINC001340305486    0.5200
      4 O4        -10.4039   -1.8179   51.6867 O.2     1  ZINC001340305486   -0.5100
      5 C5        -11.9370   -2.3239   53.4081 C.3     1  ZINC001340305486    0.0600
      6 H6        -12.5013   -1.6685   54.0714 H       1  ZINC001340305486    0.0900
      7 C7        -11.4031   -3.5207   54.2035 C.3     1  ZINC001340305486    0.0900
      8 N8        -12.5461   -4.3500   54.6173 N.am    1  ZINC001340305486   -0.5800
      9 C9        -12.6941   -4.7371   55.8998 C.2     1  ZINC001340305486    0.5100
     10 O10       -13.6434   -5.4215   56.2213 O.2     1  ZINC001340305486   -0.5200
     11 C11       -11.6893   -4.3238   56.9259 C.2     1  ZINC001340305486    0.5200
     12 O12       -10.9111   -5.1390   57.3759 O.2     1  ZINC001340305486   -0.5000
     13 N13       -11.6474   -3.0457   57.3515 N.am    1  ZINC001340305486   -0.6900
     14 C14       -10.6635   -2.6410   58.3587 C.3     1  ZINC001340305486    0.1200
     15 C15       -11.2226   -1.4766   59.1788 C.3     1  ZINC001340305486   -0.0400
     16 C16       -10.4585   -1.3610   60.4726 C.2     1  ZINC001340305486    0.1700
     17 N17        -9.5143   -2.1621   60.8906 N.2     1  ZINC001340305486   -0.2800
     18 N18        -9.0787   -1.7603   62.0336 N.2     1  ZINC001340305486   -0.2900
     19 C19        -9.7213   -0.6852   62.3913 C.2     1  ZINC001340305486    0.1900
     20 C20        -9.5113    0.1269   63.6428 C.3     1  ZINC001340305486   -0.0400
     21 C21       -10.8723    0.4338   64.2749 C.3     1  ZINC001340305486   -0.1200
     22 C22       -11.4319    1.7235   63.6822 C.3     1  ZINC001340305486   -0.1300
     23 C23       -11.0146    1.8656   62.2193 C.3     1  ZINC001340305486   -0.1400
     24 C24       -11.5779    0.6974   61.4052 C.3     1  ZINC001340305486    0.1000
     25 N25       -10.6170   -0.4063   61.4158 N.pl3   1  ZINC001340305486   -0.4600
     26 C26       -13.5224   -4.7445   53.5895 C.3     1  ZINC001340305486    0.0200
     27 C27       -13.9530   -3.4881   52.8239 C.3     1  ZINC001340305486    0.0500
     28 O28       -12.7907   -2.7953   52.3628 O.3     1  ZINC001340305486   -0.3500
     29 H29        -8.2443   -0.5499   52.6966 H       1  ZINC001340305486    0.0600
     30 H30        -9.3777    0.6540   52.0376 H       1  ZINC001340305486    0.0600
     31 H31        -8.6858    0.8787   53.6621 H       1  ZINC001340305486    0.0800
     32 H32       -10.4749   -0.3899   54.4215 H       1  ZINC001340305486    0.4000
     33 H33       -10.7314   -4.1077   53.5771 H       1  ZINC001340305486    0.0900
     34 H34       -10.8683   -3.1666   55.0848 H       1  ZINC001340305486    0.1100
     35 H35       -12.2686   -2.3939   56.9910 H       1  ZINC001340305486    0.4200
     36 H36       -10.4524   -3.4822   59.0191 H       1  ZINC001340305486    0.0900
     37 H37        -9.7442   -2.3282   57.8636 H       1  ZINC001340305486    0.0800
     38 H38       -11.1202   -0.5511   58.6124 H       1  ZINC001340305486    0.0900
     39 H39       -12.2760   -1.6565   59.3938 H       1  ZINC001340305486    0.1100
     40 H40        -8.9018   -0.4394   64.3470 H       1  ZINC001340305486    0.1000
     41 H41        -9.0074    1.0603   63.3914 H       1  ZINC001340305486    0.0900
     42 H42       -11.5600   -0.3872   64.0722 H       1  ZINC001340305486    0.0600
     43 H43       -10.7542    0.5506   65.3522 H       1  ZINC001340305486    0.0800
     44 H44       -12.5199    1.7062   63.7459 H       1  ZINC001340305486    0.0700
     45 H45       -11.0526    2.5740   64.2487 H       1  ZINC001340305486    0.0800
     46 H46       -11.4008    2.8042   61.8215 H       1  ZINC001340305486    0.0900
     47 H47        -9.9267    1.8641   62.1507 H       1  ZINC001340305486    0.0800
     48 H48       -12.5196    0.3686   61.8446 H       1  ZINC001340305486    0.0900
     49 H49       -11.7483    1.0189   60.3777 H       1  ZINC001340305486    0.1000
     50 H50       -13.0640   -5.4547   52.9012 H       1  ZINC001340305486    0.0800
     51 H51       -14.3910   -5.2009   54.0642 H       1  ZINC001340305486    0.1700
     52 H52       -14.5685   -3.7744   51.9711 H       1  ZINC001340305486    0.1200
     53 H53       -14.5255   -2.8374   53.4850 H       1  ZINC001340305486    0.0600
@<TRIPOS>BOND
     1     1     2    1
     2     1    29    1
     3     1    30    1
     4     1    31    1
     5     2     3   am
     6     2    32    1
     7     3     4    2
     8     3     5    1
     9     5     6    1
    10     5    28    1
    11     5     7    1
    12     7     8    1
    13     7    33    1
    14     7    34    1
    15     8     9   am
    16     8    26    1
    17     9    10    2
    18     9    11    1
    19    11    12    2
    20    11    13   am
    21    13    14    1
    22    13    35    1
    23    14    15    1
    24    14    36    1
    25    14    37    1
    26    15    16    1
    27    15    38    1
    28    15    39    1
    29    16    25    1
    30    16    17    2
    31    17    18    1
    32    18    19    2
    33    19    25    1
    34    19    20    1
    35    20    21    1
    36    20    40    1
    37    20    41    1
    38    21    22    1
    39    21    42    1
    40    21    43    1
    41    22    23    1
    42    22    44    1
    43    22    45    1
    44    23    24    1
    45    23    46    1
    46    23    47    1
    47    24    25    1
    48    24    48    1
    49    24    49    1
    50    26    27    1
    51    26    50    1
    52    26    51    1
    53    27    28    1
    54    27    52    1
    55    27    53    1
@<TRIPOS>SUBSTRUCTURE
     1 ZINC001340305486        1 TEMP              0 ****  ****    0 ROOT


##########                                Name:    ZINC000505965769
##########                DOCK_Rotatable_Bonds:                   9
##########                         Heavy_Atoms:                  29
##########                    Molecular_Weight:              419.88
##########                DOCK_Rotatable_Bonds:                   9
##########                       Formal_Charge:               -0.02
##########                     HBond_Acceptors:                   7
##########                        HBond_Donors:                   1
##########                         Heavy_Atoms:                  29
##########                          Grid_Score:          -36.909943
##########                     Grid_vdw_energy:          -34.547962
##########                      Grid_es_energy:           -2.361982
##########           Internal_energy_repulsive:           12.416435

@<TRIPOS>MOLECULE
ZINC000505965769
 52 54 1 0 0
SMALL
USER_CHARGES


@<TRIPOS>ATOM
      1 C1        -14.4777   -5.6728   56.8029 C.3     1  ZINC000505965769    0.0200
      2 O2        -13.3469   -5.1979   56.0696 O.3     1  ZINC000505965769   -0.3100
      3 C3        -12.5816   -4.2487   56.6644 C.ar    1  ZINC000505965769    0.1800
      4 C4        -12.8157   -2.9035   56.3990 C.ar    1  ZINC000505965769   -0.2200
      5 C5        -12.0506   -1.9410   56.9935 C.ar    1  ZINC000505965769   -0.0200
      6 C6        -11.0250   -2.3061   57.8745 C.ar    1  ZINC000505965769   -0.2100
      7 C7        -10.2018   -1.2736   58.5150 C.2     1  ZINC000505965769    0.3900
      8 O8         -9.1055   -1.0086   58.0684 O.2     1  ZINC000505965769   -0.4400
      9 C9        -10.7185   -0.5425   59.7272 C.3     1  ZINC000505965769   -0.1500
     10 C10       -10.3506   -1.3247   60.9897 C.3     1  ZINC000505965769   -0.1300
     11 C11       -10.9056   -0.6168   62.1988 C.2     1  ZINC000505965769    0.5200
     12 O12       -12.0558   -0.8026   62.5354 O.2     1  ZINC000505965769   -0.5300
     13 N13       -10.1236    0.2226   62.9062 N.am    1  ZINC000505965769   -0.7200
     14 C14       -10.6637    0.9121   64.0805 C.3     1  ZINC000505965769    0.1900
     15 H15       -11.5562    0.3922   64.4286 H       1  ZINC000505965769    0.1100
     16 C16        -9.6291    0.9231   65.1763 C.ar    1  ZINC000505965769   -0.1000
     17 C17       -10.0246    0.9998   66.4987 C.ar    1  ZINC000505965769   -0.0900
     18 C18        -9.0768    1.0100   67.5044 C.ar    1  ZINC000505965769   -0.1500
     19 C19        -7.7308    0.9428   67.1872 C.ar    1  ZINC000505965769    0.1000
     20 F20        -6.8033    0.9522   68.1696 F       1  ZINC000505965769   -0.1400
     21 C21        -7.3358    0.8656   65.8623 C.ar    1  ZINC000505965769   -0.1500
     22 C22        -8.2857    0.8507   64.8585 C.ar    1  ZINC000505965769   -0.0600
     23 C23       -11.0250    2.3508   63.7058 C.3     1  ZINC000505965769    0.0800
     24 H24       -10.1485    2.8727   63.3216 H       1  ZINC000505965769    0.0700
     25 C25       -12.1623    2.3631   62.6535 C.3     1  ZINC000505965769   -0.1500
     26 C26       -12.7829    3.7642   62.9064 C.3     1  ZINC000505965769   -0.1600
     27 C27       -12.6060    3.9305   64.4310 C.3     1  ZINC000505965769    0.0500
     28 O28       -11.5582    3.0439   64.8455 O.3     1  ZINC000505965769   -0.3700
     29 C29       -10.7881   -3.6618   58.1427 C.ar    1  ZINC000505965769    0.0500
     30 Cl30       -9.5196   -4.1259   59.2331 Cl      1  ZINC000505965769   -0.0200
     31 C31       -11.5699   -4.6240   57.5411 C.ar    1  ZINC000505965769   -0.1600
     32 H32       -15.1513   -4.8415   57.0106 H       1  ZINC000505965769    0.0600
     33 H33       -15.0015   -6.4266   56.2150 H       1  ZINC000505965769    0.1100
     34 H34       -14.1429   -6.1128   57.7423 H       1  ZINC000505965769    0.0600
     35 H35       -13.6056   -2.6190   55.7197 H       1  ZINC000505965769    0.1400
     36 H36       -12.2362   -0.8979   56.7837 H       1  ZINC000505965769    0.1500
     37 H37       -10.2702    0.4501   59.7714 H       1  ZINC000505965769    0.1100
     38 H38       -11.8024   -0.4491   59.6606 H       1  ZINC000505965769    0.1100
     39 H39       -10.7720   -2.3283   60.9310 H       1  ZINC000505965769    0.1000
     40 H40        -9.2658   -1.3905   61.0733 H       1  ZINC000505965769    0.1000
     41 H41        -9.2032    0.3702   62.6376 H       1  ZINC000505965769    0.4000
     42 H42       -11.0746    1.0522   66.7460 H       1  ZINC000505965769    0.1300
     43 H43        -9.3859    1.0706   68.5375 H       1  ZINC000505965769    0.1400
     44 H44        -6.2862    0.8135   65.6136 H       1  ZINC000505965769    0.1400
     45 H45        -7.9779    0.7901   63.8250 H       1  ZINC000505965769    0.1400
     46 H46       -11.7627    2.2871   61.6423 H       1  ZINC000505965769    0.0700
     47 H47       -12.8863    1.5718   62.8484 H       1  ZINC000505965769    0.1000
     48 H48       -12.2336    4.5350   62.3658 H       1  ZINC000505965769    0.0700
     49 H49       -13.8384    3.7757   62.6348 H       1  ZINC000505965769    0.0800
     50 H50       -12.3303    4.9597   64.6611 H       1  ZINC000505965769    0.0700
     51 H51       -13.5339    3.6721   64.9412 H       1  ZINC000505965769    0.0700
     52 H52       -11.3918   -5.6696   57.7446 H       1  ZINC000505965769    0.1500
@<TRIPOS>BOND
     1     1     2    1
     2     1    32    1
     3     1    33    1
     4     1    34    1
     5     2     3    1
     6     3    31   ar
     7     3     4   ar
     8     4     5   ar
     9     4    35    1
    10     5     6   ar
    11     5    36    1
    12     6     7    1
    13     6    29   ar
    14     7     8    2
    15     7     9    1
    16     9    10    1
    17     9    37    1
    18     9    38    1
    19    10    11    1
    20    10    39    1
    21    10    40    1
    22    11    12    2
    23    11    13   am
    24    13    14    1
    25    13    41    1
    26    14    15    1
    27    14    16    1
    28    14    23    1
    29    16    22   ar
    30    16    17   ar
    31    17    18   ar
    32    17    42    1
    33    18    19   ar
    34    18    43    1
    35    19    20    1
    36    19    21   ar
    37    21    22   ar
    38    21    44    1
    39    22    45    1
    40    23    24    1
    41    23    28    1
    42    23    25    1
    43    25    26    1
    44    25    46    1
    45    25    47    1
    46    26    27    1
    47    26    48    1
    48    26    49    1
    49    27    28    1
    50    27    50    1
    51    27    51    1
    52    29    30    1
    53    29    31   ar
    54    31    52    1
@<TRIPOS>SUBSTRUCTURE
     1 ZINC000505965769        1 TEMP              0 ****  ****    0 ROOT


##########                                Name:    ZINC001070580102
##########                DOCK_Rotatable_Bonds:                   8
##########                         Heavy_Atoms:                  25
##########                    Molecular_Weight:              349.39
##########                DOCK_Rotatable_Bonds:                   8
##########                       Formal_Charge:          -0.0100003
##########                     HBond_Acceptors:                   9
##########                        HBond_Donors:                   3
##########                         Heavy_Atoms:                  25
##########                          Grid_Score:          -36.890137
##########                     Grid_vdw_energy:          -36.923386
##########                      Grid_es_energy:            0.033251
##########           Internal_energy_repulsive:           12.105286

@<TRIPOS>MOLECULE
ZINC001070580102
 48 50 1 0 0
SMALL
USER_CHARGES


@<TRIPOS>ATOM
      1 C1        -14.5366    0.2822   63.4319 C.3     1  ZINC001070580102   -0.0800
      2 C2        -13.0955   -0.0471   63.1388 C.2     1  ZINC001070580102   -0.0100
      3 C3        -12.6595   -0.7723   62.0974 C.2     1  ZINC001070580102   -0.1900
      4 C4        -11.1959   -0.8254   62.2265 C.2     1  ZINC001070580102   -0.2500
      5 C5        -10.2463   -1.5048   61.3272 C.2     1  ZINC001070580102    0.6000
      6 O6         -9.0700   -1.5769   61.6273 O.2     1  ZINC001070580102   -0.5300
      7 N7        -10.6816   -2.0463   60.1724 N.am    1  ZINC001070580102   -0.7200
      8 C8         -9.7373   -2.7200   59.2776 C.3     1  ZINC001070580102    0.2000
      9 C9        -10.4718   -3.7437   58.4507 C.2     1  ZINC001070580102    0.2600
     10 N10       -11.3341   -3.4883   57.5003 N.2     1  ZINC001070580102   -0.5100
     11 C11       -11.7873   -4.6294   56.9828 C.2     1  ZINC001070580102    0.2300
     12 C12       -12.7934   -4.7461   55.8670 C.3     1  ZINC001070580102    0.1400
     13 H13       -12.9488   -5.7975   55.6254 H       1  ZINC001070580102    0.0800
     14 C14       -12.2730   -4.0089   54.6301 C.3     1  ZINC001070580102    0.0800
     15 O15       -13.2634   -4.0588   53.5997 O.3     1  ZINC001070580102   -0.3800
     16 C16       -14.5164   -3.4816   53.9769 C.3     1  ZINC001070580102    0.0600
     17 C17       -15.0596   -4.2134   55.2071 C.3     1  ZINC001070580102    0.0200
     18 N18       -14.0672   -4.1462   56.2898 N.3     1  ZINC001070580102   -0.5200
     19 C19       -14.5743   -4.7893   57.5093 C.3     1  ZINC001070580102    0.0600
     20 C20       -14.8558   -3.7224   58.5692 C.3     1  ZINC001070580102    0.0800
     21 O21       -15.3660   -4.3462   59.7493 O.3     1  ZINC001070580102   -0.5700
     22 N22       -11.2172   -5.6311   57.5993 N.2     1  ZINC001070580102   -0.2700
     23 N23       -10.3510   -5.0783   58.5568 N.pl3   1  ZINC001070580102   -0.4700
     24 C24       -10.9005   -0.1137   63.3523 C.2     1  ZINC001070580102    0.0900
     25 C25        -9.5202    0.1225   63.9089 C.3     1  ZINC001070580102   -0.0900
     26 O26       -12.0429    0.3431   63.8744 O.3     1  ZINC001070580102   -0.1700
     27 H27       -14.5942    0.8878   64.3363 H       1  ZINC001070580102    0.0800
     28 H28       -14.9598    0.8379   62.5950 H       1  ZINC001070580102    0.0900
     29 H29       -15.0981   -0.6408   63.5761 H       1  ZINC001070580102    0.0900
     30 H30       -13.2608   -1.2249   61.3228 H       1  ZINC001070580102    0.1500
     31 H31       -11.6200   -1.9898   59.9335 H       1  ZINC001070580102    0.4000
     32 H32        -9.2737   -1.9857   58.6189 H       1  ZINC001070580102    0.1000
     33 H33        -8.9670   -3.2154   59.8687 H       1  ZINC001070580102    0.1100
     34 H34       -12.0661   -2.9698   54.8860 H       1  ZINC001070580102    0.0700
     35 H35       -11.3584   -4.4871   54.2794 H       1  ZINC001070580102    0.1000
     36 H36       -14.3747   -2.4272   54.2138 H       1  ZINC001070580102    0.0600
     37 H37       -15.2243   -3.5785   53.1538 H       1  ZINC001070580102    0.1000
     38 H38       -15.9860   -3.7402   55.5325 H       1  ZINC001070580102    0.1200
     39 H39       -15.2518   -5.2563   54.9547 H       1  ZINC001070580102    0.0400
     40 H40       -15.4949   -5.3263   57.2810 H       1  ZINC001070580102    0.0500
     41 H41       -13.8294   -5.4894   57.8874 H       1  ZINC001070580102    0.0800
     42 H42       -13.9325   -3.1945   58.8075 H       1  ZINC001070580102    0.0500
     43 H43       -15.5905   -3.0143   58.1858 H       1  ZINC001070580102    0.0600
     44 H44       -16.0702   -4.9876   59.5821 H       1  ZINC001070580102    0.3800
     45 H45        -9.7832   -5.5633   59.1759 H       1  ZINC001070580102    0.4400
     46 H46        -9.1071    1.0358   63.4808 H       1  ZINC001070580102    0.0900
     47 H47        -9.5779    0.2232   64.9928 H       1  ZINC001070580102    0.0800
     48 H48        -8.8773   -0.7206   63.6562 H       1  ZINC001070580102    0.1100
@<TRIPOS>BOND
     1     1     2    1
     2     1    27    1
     3     1    28    1
     4     1    29    1
     5     2    26    1
     6     2     3    2
     7     3     4    1
     8     3    30    1
     9     4     5    1
    10     4    24    2
    11     5     6    2
    12     5     7   am
    13     7     8    1
    14     7    31    1
    15     8     9    1
    16     8    32    1
    17     8    33    1
    18     9    23    1
    19     9    10    2
    20    10    11    1
    21    11    12    1
    22    11    22    2
    23    12    13    1
    24    12    18    1
    25    12    14    1
    26    14    15    1
    27    14    34    1
    28    14    35    1
    29    15    16    1
    30    16    17    1
    31    16    36    1
    32    16    37    1
    33    17    18    1
    34    17    38    1
    35    17    39    1
    36    18    19    1
    37    19    20    1
    38    19    40    1
    39    19    41    1
    40    20    21    1
    41    20    42    1
    42    20    43    1
    43    21    44    1
    44    22    23    1
    45    23    45    1
    46    24    25    1
    47    24    26    1
    48    25    46    1
    49    25    47    1
    50    25    48    1
@<TRIPOS>SUBSTRUCTURE
     1 ZINC001070580102        1 TEMP              0 ****  ****    0 ROOT


##########                                Name:    ZINC001109082135
##########                DOCK_Rotatable_Bonds:                   9
##########                         Heavy_Atoms:                  27
##########                    Molecular_Weight:             373.455
##########                DOCK_Rotatable_Bonds:                   9
##########                       Formal_Charge:          -0.0100003
##########                     HBond_Acceptors:                   8
##########                        HBond_Donors:                   3
##########                         Heavy_Atoms:                  27
##########                          Grid_Score:          -36.860802
##########                     Grid_vdw_energy:          -36.784458
##########                      Grid_es_energy:           -0.076344
##########           Internal_energy_repulsive:           21.357222

@<TRIPOS>MOLECULE
ZINC001109082135
 54 57 1 0 0
SMALL
USER_CHARGES


@<TRIPOS>ATOM
      1 C1         -4.3691    2.7396   52.2318 C.3     1  ZINC001109082135   -0.1400
      2 C2         -4.1904    2.1309   50.8396 C.3     1  ZINC001109082135   -0.1400
      3 C3         -5.4452    1.3932   50.4491 C.2     1  ZINC001109082135    0.5100
      4 O4         -5.7686    1.3222   49.2824 O.2     1  ZINC001109082135   -0.5400
      5 N5         -6.2080    0.8124   51.3963 N.am    1  ZINC001109082135   -0.7200
      6 C6         -7.4287    0.0968   51.0169 C.3     1  ZINC001109082135    0.1000
      7 C7         -8.4022    0.1192   52.1671 C.2     1  ZINC001109082135    0.5100
      8 O8         -8.3167    0.9799   53.0173 O.2     1  ZINC001109082135   -0.5300
      9 N9         -9.3677   -0.8174   52.2510 N.am    1  ZINC001109082135   -0.7100
     10 C10       -10.3151   -0.7947   53.3682 C.3     1  ZINC001109082135    0.1100
     11 H11        -9.7900   -0.6483   54.3121 H       1  ZINC001109082135    0.0900
     12 C12       -11.3783    0.3112   53.1588 C.3     1  ZINC001109082135   -0.1600
     13 C13       -12.7193   -0.4803   53.0936 C.3     1  ZINC001109082135    0.0600
     14 H14       -13.6182    0.0984   53.3064 H       1  ZINC001109082135    0.1300
     15 C15       -12.6954   -1.2031   51.7131 C.3     1  ZINC001109082135   -0.1200
     16 C16       -11.6302   -2.3107   51.9029 C.3     1  ZINC001109082135   -0.1100
     17 C17       -11.1527   -2.1084   53.4042 C.3     1  ZINC001109082135    0.0400
     18 H18       -10.6800   -2.9740   53.8684 H       1  ZINC001109082135    0.1200
     19 N19       -12.4295   -1.6165   54.0395 N.3     1  ZINC001109082135   -0.4800
     20 C20       -12.1858   -1.1334   55.4052 C.3     1  ZINC001109082135    0.0800
     21 C21       -12.0207   -2.3102   56.3322 C.2     1  ZINC001109082135    0.2000
     22 C22       -11.2327   -2.2021   57.4377 C.2     1  ZINC001109082135   -0.2900
     23 C23       -11.1003   -3.3221   58.2843 C.2     1  ZINC001109082135    0.5200
     24 O24       -10.4048   -3.2679   59.2849 O.2     1  ZINC001109082135   -0.5400
     25 N25       -11.7603   -4.4556   57.9640 N.am    1  ZINC001109082135   -0.6300
     26 C26       -12.5248   -4.4977   56.8550 C.2     1  ZINC001109082135    0.4300
     27 C27       -13.2548   -5.7705   56.5117 C.3     1  ZINC001109082135   -0.1400
     28 C28       -14.5616   -6.0575   57.2540 C.3     1  ZINC001109082135   -0.1400
     29 C29       -14.5933   -5.6422   55.7818 C.3     1  ZINC001109082135   -0.1400
     30 N30       -12.6513   -3.4584   56.0737 N.2     1  ZINC001109082135   -0.5300
     31 H31        -4.5634    1.9460   52.9532 H       1  ZINC001109082135    0.0600
     32 H32        -3.4615    3.2732   52.5142 H       1  ZINC001109082135    0.0600
     33 H33        -5.2096    3.4335   52.2198 H       1  ZINC001109082135    0.0600
     34 H34        -3.9961    2.9246   50.1182 H       1  ZINC001109082135    0.1000
     35 H35        -3.3499    1.4370   50.8515 H       1  ZINC001109082135    0.1000
     36 H36        -5.9486    0.8682   52.3294 H       1  ZINC001109082135    0.4100
     37 H37        -7.8791    0.5809   50.1503 H       1  ZINC001109082135    0.1000
     38 H38        -7.1825   -0.9357   50.7692 H       1  ZINC001109082135    0.1000
     39 H39        -9.4353   -1.5065   51.5717 H       1  ZINC001109082135    0.4000
     40 H40       -11.3822    1.0042   54.0001 H       1  ZINC001109082135    0.0800
     41 H41       -11.2005    0.8425   52.2237 H       1  ZINC001109082135    0.0800
     42 H42       -13.6689   -1.6408   51.4923 H       1  ZINC001109082135    0.0700
     43 H43       -12.3956   -0.5135   50.9240 H       1  ZINC001109082135    0.0700
     44 H44       -12.0757   -3.2973   51.7760 H       1  ZINC001109082135    0.0700
     45 H45       -10.8024   -2.1700   51.2078 H       1  ZINC001109082135    0.0700
     46 H46       -11.2789   -0.5290   55.4204 H       1  ZINC001109082135    0.1000
     47 H47       -13.0312   -0.5286   55.7329 H       1  ZINC001109082135    0.0700
     48 H48       -10.7197   -1.2783   57.6612 H       1  ZINC001109082135    0.1600
     49 H49       -11.6840   -5.2389   58.5312 H       1  ZINC001109082135    0.4200
     50 H50       -12.6226   -6.6213   56.2577 H       1  ZINC001109082135    0.1300
     51 H51       -14.7892   -7.0974   57.4885 H       1  ZINC001109082135    0.1100
     52 H52       -14.8931   -5.3258   57.9906 H       1  ZINC001109082135    0.1100
     53 H53       -14.9459   -4.6371   55.5498 H       1  ZINC001109082135    0.1100
     54 H54       -14.8419   -6.4088   55.0478 H       1  ZINC001109082135    0.1100
@<TRIPOS>BOND
     1     1     2    1
     2     1    31    1
     3     1    32    1
     4     1    33    1
     5     2     3    1
     6     2    34    1
     7     2    35    1
     8     3     4    2
     9     3     5   am
    10     5     6    1
    11     5    36    1
    12     6     7    1
    13     6    37    1
    14     6    38    1
    15     7     8    2
    16     7     9   am
    17     9    10    1
    18     9    39    1
    19    10    11    1
    20    10    17    1
    21    10    12    1
    22    12    13    1
    23    12    40    1
    24    12    41    1
    25    13    14    1
    26    13    19    1
    27    13    15    1
    28    15    16    1
    29    15    42    1
    30    15    43    1
    31    16    17    1
    32    16    44    1
    33    16    45    1
    34    17    18    1
    35    17    19    1
    36    19    20    1
    37    20    21    1
    38    20    46    1
    39    20    47    1
    40    21    30    1
    41    21    22    2
    42    22    23    1
    43    22    48    1
    44    23    24    2
    45    23    25   am
    46    25    26    1
    47    25    49    1
    48    26    27    1
    49    26    30    2
    50    27    29    1
    51    27    28    1
    52    27    50    1
    53    28    29    1
    54    28    51    1
    55    28    52    1
    56    29    53    1
    57    29    54    1
@<TRIPOS>SUBSTRUCTURE
     1 ZINC001109082135        1 TEMP              0 ****  ****    0 ROOT


##########                                Name:    ZINC001077846158
##########                DOCK_Rotatable_Bonds:                   7
##########                         Heavy_Atoms:                  24
##########                    Molecular_Weight:             350.442
##########                DOCK_Rotatable_Bonds:                   7
##########                       Formal_Charge:          -0.0600002
##########                     HBond_Acceptors:                   8
##########                        HBond_Donors:                   2
##########                         Heavy_Atoms:                  24
##########                          Grid_Score:          -36.834595
##########                     Grid_vdw_energy:          -36.216072
##########                      Grid_es_energy:           -0.618522
##########           Internal_energy_repulsive:            7.925798

@<TRIPOS>MOLECULE
ZINC001077846158
 46 48 1 0 0
SMALL
USER_CHARGES


@<TRIPOS>ATOM
      1 C1        -13.0071   -0.6535   53.0301 C.3     1  ZINC001077846158   -0.0700
      2 C2        -11.8633   -1.5857   52.7233 C.2     1  ZINC001077846158    0.0100
      3 C3        -11.8875   -2.9259   52.8111 C.2     1  ZINC001077846158   -0.0500
      4 C4        -13.0593   -3.7744   53.2328 C.3     1  ZINC001077846158    0.1300
      5 N5        -13.3085   -3.5865   54.6683 N.3     1  ZINC001077846158   -0.5100
      6 C6        -14.3429   -4.5336   55.1573 C.3     1  ZINC001077846158    0.0000
      7 C7        -14.0962   -4.5694   56.6866 C.3     1  ZINC001077846158    0.1000
      8 H8        -14.5569   -3.7090   57.1719 H       1  ZINC001077846158    0.0800
      9 O9        -14.5866   -5.7878   57.2495 O.3     1  ZINC001077846158   -0.5600
     10 C10       -12.5554   -4.4957   56.7899 C.3     1  ZINC001077846158    0.1400
     11 H11       -12.1358   -5.4949   56.9068 H       1  ZINC001077846158    0.1100
     12 N12       -12.1614   -3.6447   57.9155 N.am    1  ZINC001077846158   -0.7000
     13 C13       -11.0246   -3.9047   58.5911 C.2     1  ZINC001077846158    0.6000
     14 O14       -10.3264   -4.8465   58.2672 O.2     1  ZINC001077846158   -0.5300
     15 C15       -10.6276   -3.0483   59.7214 C.2     1  ZINC001077846158    0.0100
     16 C16        -9.4261   -3.1429   60.3343 C.2     1  ZINC001077846158   -0.2300
     17 S17        -9.3533   -1.9832   61.5880 S.3     1  ZINC001077846158    0.2300
     18 C18       -10.9301   -1.4390   61.2219 C.2     1  ZINC001077846158    0.0300
     19 C19       -11.6470   -0.3321   61.9513 C.3     1  ZINC001077846158   -0.0200
     20 C20       -10.6222    0.6515   62.5196 C.3     1  ZINC001077846158   -0.1500
     21 C21       -12.5743    0.4015   60.9803 C.3     1  ZINC001077846158   -0.1500
     22 N22       -11.4186   -2.1015   60.2332 N.2     1  ZINC001077846158   -0.4500
     23 C23       -12.0923   -3.8740   55.4594 C.3     1  ZINC001077846158    0.0300
     24 O24       -10.6669   -3.3688   52.4510 O.3     1  ZINC001077846158   -0.2100
     25 C25        -9.9171   -2.3005   52.1494 C.2     1  ZINC001077846158    0.1800
     26 N26       -10.6363   -1.2260   52.3069 N.2     1  ZINC001077846158   -0.4900
     27 H27       -13.5957   -0.4913   52.1271 H       1  ZINC001077846158    0.0800
     28 H28       -13.6387   -1.0948   53.8010 H       1  ZINC001077846158    0.0700
     29 H29       -12.6142    0.2997   53.3838 H       1  ZINC001077846158    0.0700
     30 H30       -13.9438   -3.4785   52.6687 H       1  ZINC001077846158    0.0600
     31 H31       -12.8375   -4.8234   53.0367 H       1  ZINC001077846158    0.1100
     32 H32       -15.3425   -4.1586   54.9376 H       1  ZINC001077846158    0.0900
     33 H33       -14.1970   -5.5217   54.7209 H       1  ZINC001077846158    0.0600
     34 H34       -15.4990   -5.9948   57.0050 H       1  ZINC001077846158    0.3900
     35 H35       -12.7187   -2.8943   58.1745 H       1  ZINC001077846158    0.4100
     36 H36        -8.6410   -3.8375   60.0744 H       1  ZINC001077846158    0.1900
     37 H37       -12.2351   -0.7552   62.7658 H       1  ZINC001077846158    0.1000
     38 H38        -9.9616    0.1288   63.2113 H       1  ZINC001077846158    0.0600
     39 H39       -10.0341    1.0745   61.7051 H       1  ZINC001077846158    0.0600
     40 H40       -11.1408    1.4521   63.0472 H       1  ZINC001077846158    0.0700
     41 H41       -13.3043   -0.2992   60.5755 H       1  ZINC001077846158    0.0600
     42 H42       -13.0928    1.2022   61.5079 H       1  ZINC001077846158    0.0700
     43 H43       -11.9862    0.8245   60.1658 H       1  ZINC001077846158    0.0600
     44 H44       -11.4573   -4.5779   54.9216 H       1  ZINC001077846158    0.0600
     45 H45       -11.5472   -2.9498   55.6512 H       1  ZINC001077846158    0.0900
     46 H46        -8.8872   -2.3260   51.8250 H       1  ZINC001077846158    0.2500
@<TRIPOS>BOND
     1     1     2    1
     2     1    27    1
     3     1    28    1
     4     1    29    1
     5     2    26    1
     6     2     3    2
     7     3     4    1
     8     3    24    1
     9     4     5    1
    10     4    30    1
    11     4    31    1
    12     5    23    1
    13     5     6    1
    14     6     7    1
    15     6    32    1
    16     6    33    1
    17     7     8    1
    18     7     9    1
    19     7    10    1
    20     9    34    1
    21    10    11    1
    22    10    12    1
    23    10    23    1
    24    12    13   am
    25    12    35    1
    26    13    14    2
    27    13    15    1
    28    15    22    1
    29    15    16    2
    30    16    17    1
    31    16    36    1
    32    17    18    1
    33    18    19    1
    34    18    22    2
    35    19    20    1
    36    19    21    1
    37    19    37    1
    38    20    38    1
    39    20    39    1
    40    20    40    1
    41    21    41    1
    42    21    42    1
    43    21    43    1
    44    23    44    1
    45    23    45    1
    46    24    25    1
    47    25    26    2
    48    25    46    1
@<TRIPOS>SUBSTRUCTURE
     1 ZINC001077846158        1 TEMP              0 ****  ****    0 ROOT


##########                                Name:    ZINC001289410668
##########                DOCK_Rotatable_Bonds:                  11
##########                         Heavy_Atoms:                  26
##########                    Molecular_Weight:             362.515
##########                DOCK_Rotatable_Bonds:                  11
##########                       Formal_Charge:          -0.0400008
##########                     HBond_Acceptors:                   6
##########                        HBond_Donors:                   1
##########                         Heavy_Atoms:                  26
##########                          Grid_Score:          -36.833473
##########                     Grid_vdw_energy:          -35.496338
##########                      Grid_es_energy:           -1.337134
##########           Internal_energy_repulsive:           14.907573

@<TRIPOS>MOLECULE
ZINC001289410668
 60 61 1 0 0
SMALL
USER_CHARGES


@<TRIPOS>ATOM
      1 C1         -5.1914    2.3533   66.7561 C.3     1  ZINC001289410668   -0.1500
      2 C2         -6.5407    1.8481   67.2709 C.3     1  ZINC001289410668   -0.1300
      3 C3         -7.4020    1.3995   66.0885 C.3     1  ZINC001289410668   -0.1200
      4 C4         -8.7505    0.8921   66.6034 C.3     1  ZINC001289410668   -0.1200
      5 C5         -9.7048    0.6936   65.4241 C.3     1  ZINC001289410668   -0.1100
      6 C6         -9.1677   -0.4129   64.5141 C.3     1  ZINC001289410668   -0.1400
      7 C7        -10.1441   -0.6594   63.3930 C.2     1  ZINC001289410668    0.5100
      8 O8        -11.3345   -0.5305   63.5863 O.2     1  ZINC001289410668   -0.5300
      9 N9         -9.6945   -1.0231   62.1756 N.am    1  ZINC001289410668   -0.7200
     10 C10       -10.6438   -1.2644   61.0861 C.3     1  ZINC001289410668    0.1400
     11 H11       -11.6266   -1.5265   61.4781 H       1  ZINC001289410668    0.1100
     12 C12       -10.1191   -2.3601   60.1251 C.3     1  ZINC001289410668    0.0800
     13 N13       -10.7839   -2.0836   58.8386 N.am    1  ZINC001289410668   -0.6200
     14 C14       -11.0089   -2.9839   57.8612 C.2     1  ZINC001289410668    0.5100
     15 O15       -10.6512   -4.1341   58.0021 O.2     1  ZINC001289410668   -0.5100
     16 C16       -11.7049   -2.5611   56.5931 C.3     1  ZINC001289410668    0.0900
     17 N17       -12.6917   -3.5761   56.2160 N.pl3   1  ZINC001289410668   -0.4500
     18 C18       -13.3901   -4.3866   57.0698 C.2     1  ZINC001289410668   -0.0500
     19 C19       -14.1833   -5.1637   56.3078 C.2     1  ZINC001289410668   -0.0200
     20 N20       -13.9750   -4.8365   55.0239 N.2     1  ZINC001289410668   -0.4800
     21 C21       -13.0865   -3.8828   54.9615 C.2     1  ZINC001289410668    0.2300
     22 C22       -12.5783   -3.2370   53.6982 C.3     1  ZINC001289410668   -0.0100
     23 C23       -11.4561   -4.0911   53.1047 C.3     1  ZINC001289410668   -0.1400
     24 C24       -13.7216   -3.1236   52.6879 C.3     1  ZINC001289410668   -0.1400
     25 C25       -11.1616   -0.6632   58.7988 C.3     1  ZINC001289410668    0.1100
     26 C26       -10.7310   -0.0362   60.1421 C.3     1  ZINC001289410668   -0.1100
     27 H27        -9.7583    0.4468   60.0480 H       1  ZINC001289410668    0.0900
     28 C28       -11.7820    0.9596   60.6364 C.3     1  ZINC001289410668   -0.1400
     29 H29        -4.5778    2.6730   67.5984 H       1  ZINC001289410668    0.0500
     30 H30        -4.6836    1.5515   66.2203 H       1  ZINC001289410668    0.0500
     31 H31        -5.3515    3.1956   66.0829 H       1  ZINC001289410668    0.0500
     32 H32        -6.3806    1.0059   67.9440 H       1  ZINC001289410668    0.0600
     33 H33        -7.0485    2.6501   67.8067 H       1  ZINC001289410668    0.0600
     34 H34        -7.5635    2.2422   65.4162 H       1  ZINC001289410668    0.0600
     35 H35        -6.8935    0.5986   65.5518 H       1  ZINC001289410668    0.0600
     36 H36        -8.6084   -0.0573   67.1196 H       1  ZINC001289410668    0.0600
     37 H37        -9.1734    1.6215   67.2942 H       1  ZINC001289410668    0.0600
     38 H38       -10.6894    0.4114   65.7971 H       1  ZINC001289410668    0.0700
     39 H39        -9.7828    1.6226   64.8594 H       1  ZINC001289410668    0.0700
     40 H40        -8.2073   -0.1075   64.0989 H       1  ZINC001289410668    0.1000
     41 H41        -9.0393   -1.3282   65.0919 H       1  ZINC001289410668    0.1000
     42 H42        -8.7425   -1.1249   62.0207 H       1  ZINC001289410668    0.4000
     43 H43        -9.0371   -2.2835   60.0171 H       1  ZINC001289410668    0.0800
     44 H44       -10.3957   -3.3492   60.4901 H       1  ZINC001289410668    0.0800
     45 H45       -12.2080   -1.6078   56.7553 H       1  ZINC001289410668    0.1200
     46 H46       -10.9710   -2.4534   55.7944 H       1  ZINC001289410668    0.1200
     47 H47       -13.3183   -4.4006   58.1473 H       1  ZINC001289410668    0.1700
     48 H48       -14.8673   -5.9181   56.6677 H       1  ZINC001289410668    0.1700
     49 H49       -12.1956   -2.2424   53.9271 H       1  ZINC001289410668    0.0700
     50 H50       -11.8388   -5.0857   52.8759 H       1  ZINC001289410668    0.0700
     51 H51       -11.0885   -3.6241   52.1911 H       1  ZINC001289410668    0.0600
     52 H52       -10.6416   -4.1719   53.8245 H       1  ZINC001289410668    0.0500
     53 H53       -14.1043   -4.1183   52.4590 H       1  ZINC001289410668    0.0700
     54 H54       -14.5211   -2.5151   53.1106 H       1  ZINC001289410668    0.0600
     55 H55       -13.3541   -2.6566   51.7741 H       1  ZINC001289410668    0.0600
     56 H56       -10.6485   -0.1661   57.9758 H       1  ZINC001289410668    0.0800
     57 H57       -12.2407   -0.5699   58.6760 H       1  ZINC001289410668    0.0800
     58 H58       -12.7388    0.4505   60.7522 H       1  ZINC001289410668    0.0600
     59 H59       -11.4703    1.3701   61.5968 H       1  ZINC001289410668    0.0600
     60 H60       -11.8858    1.7678   59.9123 H       1  ZINC001289410668    0.0700
@<TRIPOS>BOND
     1     1     2    1
     2     1    29    1
     3     1    30    1
     4     1    31    1
     5     2     3    1
     6     2    32    1
     7     2    33    1
     8     3     4    1
     9     3    34    1
    10     3    35    1
    11     4     5    1
    12     4    36    1
    13     4    37    1
    14     5     6    1
    15     5    38    1
    16     5    39    1
    17     6     7    1
    18     6    40    1
    19     6    41    1
    20     7     8    2
    21     7     9   am
    22     9    10    1
    23     9    42    1
    24    10    11    1
    25    10    26    1
    26    10    12    1
    27    12    13    1
    28    12    43    1
    29    12    44    1
    30    13    14   am
    31    13    25    1
    32    14    15    2
    33    14    16    1
    34    16    17    1
    35    16    45    1
    36    16    46    1
    37    17    21    1
    38    17    18    1
    39    18    19    2
    40    18    47    1
    41    19    20    1
    42    19    48    1
    43    20    21    2
    44    21    22    1
    45    22    23    1
    46    22    24    1
    47    22    49    1
    48    23    50    1
    49    23    51    1
    50    23    52    1
    51    24    53    1
    52    24    54    1
    53    24    55    1
    54    25    26    1
    55    25    56    1
    56    25    57    1
    57    26    27    1
    58    26    28    1
    59    28    58    1
    60    28    59    1
    61    28    60    1
@<TRIPOS>SUBSTRUCTURE
     1 ZINC001289410668        1 TEMP              0 ****  ****    0 ROOT


##########                                Name:    ZINC000859608860
##########                DOCK_Rotatable_Bonds:                   8
##########                         Heavy_Atoms:                  24
##########                    Molecular_Weight:             394.268
##########                DOCK_Rotatable_Bonds:                   8
##########                       Formal_Charge:          -0.0200003
##########                     HBond_Acceptors:                   6
##########                        HBond_Donors:                   1
##########                         Heavy_Atoms:                  24
##########                          Grid_Score:          -36.758438
##########                     Grid_vdw_energy:          -34.883350
##########                      Grid_es_energy:           -1.875087
##########           Internal_energy_repulsive:           11.895116

@<TRIPOS>MOLECULE
ZINC000859608860
 44 45 1 0 0
SMALL
USER_CHARGES


@<TRIPOS>ATOM
      1 C1        -11.2009   -3.7184   53.6586 C.3     1  ZINC000859608860   -0.1400
      2 C2        -12.1704   -2.5492   53.4732 C.3     1  ZINC000859608860   -0.0800
      3 C3        -11.7992   -1.4211   54.4378 C.3     1  ZINC000859608860   -0.1400
      4 C4        -12.0839   -2.0385   52.0336 C.3     1  ZINC000859608860   -0.1400
      5 C5        -13.5973   -3.0191   53.7629 C.3     1  ZINC000859608860    0.1300
      6 N6        -13.6858   -3.4862   55.1486 N.am    1  ZINC000859608860   -0.7300
      7 C7        -13.7384   -4.8068   55.4125 C.2     1  ZINC000859608860    0.5100
      8 O8        -13.7141   -5.6084   54.5029 O.2     1  ZINC000859608860   -0.5100
      9 C9        -13.8276   -5.2873   56.8381 C.3     1  ZINC000859608860    0.0500
     10 O10       -13.0360   -4.4196   57.6918 O.3     1  ZINC000859608860   -0.3100
     11 C11       -11.7353   -4.7366   57.8489 C.2     1  ZINC000859608860    0.5600
     12 O12       -11.2439   -5.6312   57.1890 O.2     1  ZINC000859608860   -0.5100
     13 C13       -10.9104   -3.9996   58.8193 C.2     1  ZINC000859608860   -0.0400
     14 C14       -11.3377   -3.0022   59.6479 C.2     1  ZINC000859608860    0.0500
     15 N15       -10.2570   -2.6039   60.3725 N.pl3   1  ZINC000859608860   -0.4100
     16 C16       -10.2395   -1.5979   61.3494 C.ar    1  ZINC000859608860    0.1400
     17 C17        -9.3557   -1.6806   62.4168 C.ar    1  ZINC000859608860   -0.1200
     18 C18        -9.3401   -0.6883   63.3774 C.ar    1  ZINC000859608860   -0.0600
     19 C19       -10.2043    0.3874   63.2765 C.ar    1  ZINC000859608860   -0.1000
     20 Br20      -10.1803    1.7441   64.5935 Br      1  ZINC000859608860   -0.0300
     21 C21       -11.0857    0.4724   62.2135 C.ar    1  ZINC000859608860   -0.0600
     22 C22       -11.1020   -0.5149   61.2477 C.ar    1  ZINC000859608860   -0.1200
     23 C23        -9.1958   -3.3592   59.9771 C.2     1  ZINC000859608860    0.2000
     24 N24        -9.5875   -4.1924   59.0573 N.2     1  ZINC000859608860   -0.4300
     25 H25       -11.2624   -4.0822   54.6843 H       1  ZINC000859608860    0.0500
     26 H26       -11.4653   -4.5220   52.9715 H       1  ZINC000859608860    0.0600
     27 H27       -10.1843   -3.3836   53.4522 H       1  ZINC000859608860    0.0600
     28 H28       -10.7826   -1.0863   54.2314 H       1  ZINC000859608860    0.0600
     29 H29       -12.4898   -0.5881   54.3056 H       1  ZINC000859608860    0.0600
     30 H30       -11.8607   -1.7849   55.4634 H       1  ZINC000859608860    0.0500
     31 H31       -12.3484   -2.8422   51.3464 H       1  ZINC000859608860    0.0600
     32 H32       -12.7746   -1.2056   51.9015 H       1  ZINC000859608860    0.0600
     33 H33       -11.0673   -1.7038   51.8272 H       1  ZINC000859608860    0.0600
     34 H34       -14.2899   -2.1908   53.6138 H       1  ZINC000859608860    0.0700
     35 H35       -13.8554   -3.8347   53.0874 H       1  ZINC000859608860    0.0700
     36 H36       -13.7065   -2.8450   55.8762 H       1  ZINC000859608860    0.4000
     37 H37       -14.8676   -5.2672   57.1640 H       1  ZINC000859608860    0.1000
     38 H38       -13.4463   -6.3065   56.9025 H       1  ZINC000859608860    0.1000
     39 H39       -12.3401   -2.6056   59.7151 H       1  ZINC000859608860    0.2000
     40 H40        -8.6812   -2.5204   62.4962 H       1  ZINC000859608860    0.1400
     41 H41        -8.6530   -0.7525   64.2081 H       1  ZINC000859608860    0.1500
     42 H42       -11.7594    1.3131   62.1369 H       1  ZINC000859608860    0.1500
     43 H43       -11.7903   -0.4481   60.4181 H       1  ZINC000859608860    0.1500
     44 H44        -8.1915   -3.2823   60.3669 H       1  ZINC000859608860    0.2200
@<TRIPOS>BOND
     1     1     2    1
     2     1    25    1
     3     1    26    1
     4     1    27    1
     5     2     3    1
     6     2     4    1
     7     2     5    1
     8     3    28    1
     9     3    29    1
    10     3    30    1
    11     4    31    1
    12     4    32    1
    13     4    33    1
    14     5     6    1
    15     5    34    1
    16     5    35    1
    17     6     7   am
    18     6    36    1
    19     7     8    2
    20     7     9    1
    21     9    10    1
    22     9    37    1
    23     9    38    1
    24    10    11    1
    25    11    12    2
    26    11    13    1
    27    13    24    1
    28    13    14    2
    29    14    15    1
    30    14    39    1
    31    15    16    1
    32    15    23    1
    33    16    22   ar
    34    16    17   ar
    35    17    18   ar
    36    17    40    1
    37    18    19   ar
    38    18    41    1
    39    19    20    1
    40    19    21   ar
    41    21    22   ar
    42    21    42    1
    43    22    43    1
    44    23    24    2
    45    23    44    1
@<TRIPOS>SUBSTRUCTURE
     1 ZINC000859608860        1 TEMP              0 ****  ****    0 ROOT


##########                                Name:    ZINC001411334959
##########                DOCK_Rotatable_Bonds:                   9
##########                         Heavy_Atoms:                  24
##########                    Molecular_Weight:              339.37
##########                DOCK_Rotatable_Bonds:                   9
##########                       Formal_Charge:           0.0199995
##########                     HBond_Acceptors:                   9
##########                        HBond_Donors:                   3
##########                         Heavy_Atoms:                  24
##########                          Grid_Score:          -36.750469
##########                     Grid_vdw_energy:          -33.046818
##########                      Grid_es_energy:           -3.703651
##########           Internal_energy_repulsive:            5.711272

@<TRIPOS>MOLECULE
ZINC001411334959
 46 48 1 0 0
SMALL
USER_CHARGES


@<TRIPOS>ATOM
      1 O1        -16.2541   -1.8030   53.4924 O.2     1  ZINC001411334959   -0.5400
      2 C2        -15.5736   -2.4992   52.7690 C.2     1  ZINC001411334959    0.5200
      3 C3        -15.3590   -2.1068   51.3299 C.3     1  ZINC001411334959   -0.1400
      4 C4        -14.2450   -1.0612   51.2471 C.3     1  ZINC001411334959   -0.0100
      5 C5        -14.0576   -0.6394   49.8126 C.2     1  ZINC001411334959    0.0100
      6 N6        -13.7478    0.5596   49.3741 N.2     1  ZINC001411334959   -0.2800
      7 N7        -13.6770    0.5242   48.0905 N.pl3   1  ZINC001411334959   -0.2500
      8 N8        -13.9289   -0.6584   47.6526 N.2     1  ZINC001411334959   -0.2800
      9 C9        -14.1716   -1.4445   48.6769 C.2     1  ZINC001411334959   -0.0200
     10 N10       -15.0048   -3.6209   53.2536 N.am    1  ZINC001411334959   -0.7200
     11 C11       -15.2135   -4.0023   54.6526 C.3     1  ZINC001411334959    0.1200
     12 C12       -14.5203   -5.3187   55.0422 C.3     1  ZINC001411334959   -0.1400
     13 C13       -14.1602   -4.6429   56.3758 C.3     1  ZINC001411334959   -0.1200
     14 C14       -12.7489   -4.9704   56.8673 C.3     1  ZINC001411334959    0.1300
     15 N15       -12.2047   -3.8191   57.5916 N.am    1  ZINC001411334959   -0.7200
     16 C16       -11.0380   -3.9316   58.2569 C.2     1  ZINC001411334959    0.5100
     17 O17       -10.4379   -4.9856   58.2549 O.2     1  ZINC001411334959   -0.5100
     18 C18       -10.4790   -2.7479   59.0035 C.3     1  ZINC001411334959    0.0700
     19 F19        -9.7175   -1.9397   58.1524 F       1  ZINC001411334959   -0.1800
     20 C20       -11.6161   -1.9319   59.6767 C.3     1  ZINC001411334959   -0.1600
     21 C21       -10.8603   -1.3103   60.8782 C.3     1  ZINC001411334959    0.0500
     22 O22        -9.9363   -2.3239   61.3050 O.3     1  ZINC001411334959   -0.3700
     23 C23        -9.6434   -3.2083   60.2172 C.3     1  ZINC001411334959    0.0400
     24 C24       -14.2574   -3.3007   55.6316 C.3     1  ZINC001411334959   -0.1400
     25 H25       -15.0754   -2.9863   50.7518 H       1  ZINC001411334959    0.1000
     26 H26       -16.2808   -1.6882   50.9260 H       1  ZINC001411334959    0.1000
     27 H27       -14.5158   -0.1935   51.8486 H       1  ZINC001411334959    0.1000
     28 H28       -13.3163   -1.4892   51.6244 H       1  ZINC001411334959    0.0900
     29 H29       -13.4630    1.2857   47.5292 H       1  ZINC001411334959    0.4700
     30 H30       -14.4159   -2.4961   48.6466 H       1  ZINC001411334959    0.2000
     31 H31       -14.4574   -4.1755   52.6761 H       1  ZINC001411334959    0.4000
     32 H32       -16.2600   -3.9529   54.9533 H       1  ZINC001411334959    0.1200
     33 H33       -15.2067   -6.1585   55.1495 H       1  ZINC001411334959    0.0800
     34 H34       -13.6538   -5.5553   54.4246 H       1  ZINC001411334959    0.0900
     35 H35       -14.9180   -4.7710   57.1487 H       1  ZINC001411334959    0.1000
     36 H36       -12.7868   -5.8332   57.5325 H       1  ZINC001411334959    0.0800
     37 H37       -12.1103   -5.1976   56.0137 H       1  ZINC001411334959    0.0800
     38 H38       -12.6839   -2.9757   57.5923 H       1  ZINC001411334959    0.4100
     39 H39       -11.9938   -1.1587   59.0078 H       1  ZINC001411334959    0.1000
     40 H40       -12.4212   -2.5846   60.0142 H       1  ZINC001411334959    0.1100
     41 H41       -10.3223   -0.4156   60.5648 H       1  ZINC001411334959    0.0700
     42 H42       -11.5577   -1.0716   61.6812 H       1  ZINC001411334959    0.1000
     43 H43        -9.9146   -4.2290   60.4870 H       1  ZINC001411334959    0.0900
     44 H44        -8.5817   -3.1583   59.9755 H       1  ZINC001411334959    0.0900
     45 H45       -13.3191   -2.9856   55.1752 H       1  ZINC001411334959    0.0900
     46 H46       -14.7316   -2.5114   56.2149 H       1  ZINC001411334959    0.0800
@<TRIPOS>BOND
     1     1     2    2
     2     2     3    1
     3     2    10   am
     4     3     4    1
     5     3    25    1
     6     3    26    1
     7     4     5    1
     8     4    27    1
     9     4    28    1
    10     5     9    1
    11     5     6    2
    12     6     7    1
    13     7     8    1
    14     7    29    1
    15     8     9    2
    16     9    30    1
    17    10    11    1
    18    10    31    1
    19    11    24    1
    20    11    12    1
    21    11    32    1
    22    12    13    1
    23    12    33    1
    24    12    34    1
    25    13    14    1
    26    13    24    1
    27    13    35    1
    28    14    15    1
    29    14    36    1
    30    14    37    1
    31    15    16   am
    32    15    38    1
    33    16    17    2
    34    16    18    1
    35    18    23    1
    36    18    19    1
    37    18    20    1
    38    20    21    1
    39    20    39    1
    40    20    40    1
    41    21    22    1
    42    21    41    1
    43    21    42    1
    44    22    23    1
    45    23    43    1
    46    23    44    1
    47    24    45    1
    48    24    46    1
@<TRIPOS>SUBSTRUCTURE
     1 ZINC001411334959        1 TEMP              0 ****  ****    0 ROOT


##########                                Name:    ZINC000492313853
##########                DOCK_Rotatable_Bonds:                   8
##########                         Heavy_Atoms:                  30
##########                    Molecular_Weight:             418.422
##########                DOCK_Rotatable_Bonds:                   8
##########                       Formal_Charge:          -0.0100008
##########                     HBond_Acceptors:                  10
##########                        HBond_Donors:                   2
##########                         Heavy_Atoms:                  30
##########                          Grid_Score:          -36.708096
##########                     Grid_vdw_energy:          -35.795994
##########                      Grid_es_energy:           -0.912100
##########           Internal_energy_repulsive:            9.200010

@<TRIPOS>MOLECULE
ZINC000492313853
 51 53 1 0 0
SMALL
USER_CHARGES


@<TRIPOS>ATOM
      1 C1         -8.6599    0.6805   52.4267 C.3     1  ZINC000492313853    0.0900
      2 N2         -8.9434   -0.6999   52.0263 N.pl3   1  ZINC000492313853   -0.6200
      3 C3         -7.9019   -1.5045   51.3829 C.3     1  ZINC000492313853    0.1000
      4 C4        -10.2005   -1.2464   52.2571 C.ar    1  ZINC000492313853    0.4100
      5 C5        -11.3199   -0.4208   52.2653 C.ar    1  ZINC000492313853   -0.2400
      6 C6        -12.5650   -0.9780   52.4958 C.ar    1  ZINC000492313853   -0.0100
      7 C7        -12.6488   -2.3470   52.7111 C.ar    1  ZINC000492313853   -0.2300
      8 C8        -13.9843   -2.9971   52.9656 C.3     1  ZINC000492313853    0.2000
      9 N9        -13.8715   -3.9167   54.1005 N.am    1  ZINC000492313853   -0.7300
     10 C10       -13.7222   -3.4312   55.3489 C.2     1  ZINC000492313853    0.7100
     11 O11       -13.6826   -2.2300   55.5334 O.2     1  ZINC000492313853   -0.5600
     12 N12       -13.6168   -4.2772   56.3928 N.am    1  ZINC000492313853   -0.6600
     13 C13       -13.4605   -3.7747   57.6849 C.2     1  ZINC000492313853    0.3300
     14 C14       -12.3278   -3.2301   58.2015 C.2     1  ZINC000492313853   -0.2600
     15 C15       -12.5994   -2.8523   59.5297 C.2     1  ZINC000492313853    0.1200
     16 C16       -11.6408   -2.2163   60.4675 C.ar    1  ZINC000492313853   -0.0100
     17 C17       -10.4297   -2.8400   60.7590 C.ar    1  ZINC000492313853   -0.0600
     18 C18        -9.5416   -2.2437   61.6315 C.ar    1  ZINC000492313853   -0.1200
     19 C19        -9.8523   -1.0294   62.2159 C.ar    1  ZINC000492313853   -0.0700
     20 C20       -11.0535   -0.4055   61.9299 C.ar    1  ZINC000492313853   -0.1900
     21 C21       -11.3850    0.9178   62.5701 C.3     1  ZINC000492313853    0.5100
     22 F22       -10.4366    1.2092   63.5565 F       1  ZINC000492313853   -0.1800
     23 F23       -11.3701    1.9231   61.5974 F       1  ZINC000492313853   -0.1800
     24 F24       -12.6559    0.8495   63.1509 F       1  ZINC000492313853   -0.1800
     25 C25       -11.9465   -0.9902   61.0550 C.ar    1  ZINC000492313853   -0.0400
     26 N26       -13.8507   -3.1610   59.7961 N.2     1  ZINC000492313853   -0.2700
     27 N27       -14.4152   -3.7366   58.6509 N.pl3   1  ZINC000492313853   -0.3900
     28 C28       -15.7915   -4.2216   58.5204 C.3     1  ZINC000492313853    0.1000
     29 C29       -11.4963   -3.1068   52.6891 C.ar    1  ZINC000492313853    0.1700
     30 N30       -10.3223   -2.5491   52.4617 N.ar    1  ZINC000492313853   -0.5400
     31 H31        -8.9028    1.3543   51.6050 H       1  ZINC000492313853    0.0600
     32 H32        -9.2631    0.9374   53.2976 H       1  ZINC000492313853    0.0700
     33 H33        -7.6031    0.7770   52.6755 H       1  ZINC000492313853    0.0700
     34 H34        -6.9921   -0.9117   51.2869 H       1  ZINC000492313853    0.0700
     35 H35        -7.6980   -2.3871   51.9890 H       1  ZINC000492313853    0.0600
     36 H36        -8.2403   -1.8132   50.3938 H       1  ZINC000492313853    0.0600
     37 H37       -11.2185    0.6407   52.0944 H       1  ZINC000492313853    0.1300
     38 H38       -13.4519   -0.3617   52.5084 H       1  ZINC000492313853    0.1400
     39 H39       -14.7247   -2.2298   53.1919 H       1  ZINC000492313853    0.0800
     40 H40       -14.2939   -3.5504   52.0790 H       1  ZINC000492313853    0.0800
     41 H41       -13.9043   -4.8749   53.9534 H       1  ZINC000492313853    0.4000
     42 H42       -13.6496   -5.2354   56.2457 H       1  ZINC000492313853    0.4100
     43 H43       -11.3870   -3.1092   57.6851 H       1  ZINC000492313853    0.1800
     44 H44       -10.1863   -3.7885   60.3035 H       1  ZINC000492313853    0.1400
     45 H45        -8.6026   -2.7265   61.8584 H       1  ZINC000492313853    0.1400
     46 H46        -9.1548   -0.5664   62.8982 H       1  ZINC000492313853    0.1400
     47 H47       -12.8839   -0.5024   60.8324 H       1  ZINC000492313853    0.1400
     48 H48       -16.4301   -3.4119   58.1677 H       1  ZINC000492313853    0.0800
     49 H49       -15.8205   -5.0447   57.8063 H       1  ZINC000492313853    0.0800
     50 H50       -16.1476   -4.5692   59.4902 H       1  ZINC000492313853    0.1000
     51 H51       -11.5568   -4.1721   52.8560 H       1  ZINC000492313853    0.1600
@<TRIPOS>BOND
     1     1     2    1
     2     1    31    1
     3     1    32    1
     4     1    33    1
     5     2     3    1
     6     2     4    1
     7     3    34    1
     8     3    35    1
     9     3    36    1
    10     4    30   ar
    11     4     5   ar
    12     5     6   ar
    13     5    37    1
    14     6     7   ar
    15     6    38    1
    16     7     8    1
    17     7    29   ar
    18     8     9    1
    19     8    39    1
    20     8    40    1
    21     9    10   am
    22     9    41    1
    23    10    11    2
    24    10    12   am
    25    12    13    1
    26    12    42    1
    27    13    27    1
    28    13    14    2
    29    14    15    1
    30    14    43    1
    31    15    16    1
    32    15    26    2
    33    16    25   ar
    34    16    17   ar
    35    17    18   ar
    36    17    44    1
    37    18    19   ar
    38    18    45    1
    39    19    20   ar
    40    19    46    1
    41    20    21    1
    42    20    25   ar
    43    21    22    1
    44    21    23    1
    45    21    24    1
    46    25    47    1
    47    26    27    1
    48    27    28    1
    49    28    48    1
    50    28    49    1
    51    28    50    1
    52    29    30   ar
    53    29    51    1
@<TRIPOS>SUBSTRUCTURE
     1 ZINC000492313853        1 TEMP              0 ****  ****    0 ROOT


##########                                Name:    ZINC001065334255
##########                DOCK_Rotatable_Bonds:                   7
##########                         Heavy_Atoms:                  23
##########                    Molecular_Weight:             346.448
##########                DOCK_Rotatable_Bonds:                   7
##########                       Formal_Charge:        -5.81145e-07
##########                     HBond_Acceptors:                   8
##########                        HBond_Donors:                   1
##########                         Heavy_Atoms:                  23
##########                          Grid_Score:          -36.691635
##########                     Grid_vdw_energy:          -34.967793
##########                      Grid_es_energy:           -1.723841
##########           Internal_energy_repulsive:           20.273602

@<TRIPOS>MOLECULE
ZINC001065334255
 49 50 1 0 0
SMALL
USER_CHARGES


@<TRIPOS>ATOM
      1 C1         -9.7682    0.1632   63.4365 C.3     1  ZINC001065334255   -0.1500
      2 C2        -11.0899    0.8957   63.6758 C.3     1  ZINC001065334255   -0.0800
      3 C3        -11.0062    1.6848   64.9839 C.3     1  ZINC001065334255   -0.1500
      4 C4        -11.3572    1.8576   62.5162 C.3     1  ZINC001065334255   -0.1400
      5 C5        -11.4776    1.0765   61.2332 C.2     1  ZINC001065334255    0.5100
      6 O6        -12.5542    0.6352   60.8907 O.2     1  ZINC001065334255   -0.5300
      7 N7        -10.3891    0.8682   60.4662 N.am    1  ZINC001065334255   -0.7300
      8 C8        -10.5066    0.1104   59.2180 C.3     1  ZINC001065334255    0.1300
      9 C9        -10.5161   -1.3875   59.5298 C.3     1  ZINC001065334255    0.0700
     10 H10       -11.4386   -1.6453   60.0500 H       1  ZINC001065334255    0.0700
     11 C11       -10.4259   -2.1832   58.2227 C.3     1  ZINC001065334255    0.0800
     12 N12       -10.2480   -3.6053   58.5564 N.am    1  ZINC001065334255   -0.6100
     13 C13       -11.0330   -4.5511   58.0035 C.2     1  ZINC001065334255    0.5400
     14 O14       -10.8704   -5.7182   58.2909 O.2     1  ZINC001065334255   -0.5200
     15 C15       -12.1127   -4.1586   57.0283 C.3     1  ZINC001065334255   -0.1100
     16 H16       -12.7153   -3.3510   57.4441 H       1  ZINC001065334255    0.1200
     17 C17       -13.0042   -5.3725   56.7125 C.3     1  ZINC001065334255   -0.1000
     18 C18       -13.8684   -5.0435   55.4789 C.3     1  ZINC001065334255   -0.5900
     19 S19       -12.8879   -3.8335   54.5196 S.o2    1  ZINC001065334255    2.3900
     20 O20       -12.4481   -4.4366   53.3104 O.2     1  ZINC001065334255   -0.9300
     21 O21       -13.5787   -2.5923   54.4810 O.2     1  ZINC001065334255   -0.9300
     22 C22       -11.4787   -3.7114   55.6859 C.3     1  ZINC001065334255   -0.5900
     23 C23        -9.1873   -3.9643   59.5111 C.3     1  ZINC001065334255    0.0600
     24 C24        -9.3379   -3.0818   60.7555 C.3     1  ZINC001065334255    0.0500
     25 O25        -9.3955   -1.7102   60.3568 O.3     1  ZINC001065334255   -0.3700
     26 H26        -9.5777   -0.5219   64.2626 H       1  ZINC001065334255    0.0600
     27 H27        -9.8278   -0.3990   62.5046 H       1  ZINC001065334255    0.0500
     28 H28        -8.9572    0.8887   63.3720 H       1  ZINC001065334255    0.0600
     29 H29       -11.9008    0.1703   63.7404 H       1  ZINC001065334255    0.0800
     30 H30       -10.1952    2.4103   64.9194 H       1  ZINC001065334255    0.0500
     31 H31       -11.9478    2.2067   65.1543 H       1  ZINC001065334255    0.0700
     32 H32       -10.8158    0.9996   65.8099 H       1  ZINC001065334255    0.0500
     33 H33       -12.2848    2.3996   62.7002 H       1  ZINC001065334255    0.0900
     34 H34       -10.5327    2.5658   62.4344 H       1  ZINC001065334255    0.0900
     35 H35        -9.5279    1.2202   60.7408 H       1  ZINC001065334255    0.4000
     36 H36       -11.4338    0.3823   58.7137 H       1  ZINC001065334255    0.0900
     37 H37        -9.6601    0.3416   58.5715 H       1  ZINC001065334255    0.0800
     38 H38       -11.3436   -2.0527   57.6493 H       1  ZINC001065334255    0.1100
     39 H39        -9.5746   -1.8339   57.6384 H       1  ZINC001065334255    0.0900
     40 H40       -12.3798   -6.2407   56.5014 H       1  ZINC001065334255    0.1000
     41 H41       -13.6487   -5.5856   57.5652 H       1  ZINC001065334255    0.1000
     42 H42       -14.0427   -5.9428   54.8882 H       1  ZINC001065334255    0.1500
     43 H43       -14.8164   -4.6028   55.7875 H       1  ZINC001065334255    0.1400
     44 H44       -11.1178   -2.6848   55.7504 H       1  ZINC001065334255    0.1400
     45 H45       -10.6752   -4.3875   55.3941 H       1  ZINC001065334255    0.1500
     46 H46        -9.2849   -5.0133   59.7909 H       1  ZINC001065334255    0.1000
     47 H47        -8.2113   -3.7944   59.0564 H       1  ZINC001065334255    0.0900
     48 H48       -10.2558   -3.3464   61.2805 H       1  ZINC001065334255    0.0600
     49 H49        -8.4835   -3.2337   61.4151 H       1  ZINC001065334255    0.1100
@<TRIPOS>BOND
     1     1     2    1
     2     1    26    1
     3     1    27    1
     4     1    28    1
     5     2     3    1
     6     2     4    1
     7     2    29    1
     8     3    30    1
     9     3    31    1
    10     3    32    1
    11     4     5    1
    12     4    33    1
    13     4    34    1
    14     5     6    2
    15     5     7   am
    16     7     8    1
    17     7    35    1
    18     8     9    1
    19     8    36    1
    20     8    37    1
    21     9    10    1
    22     9    25    1
    23     9    11    1
    24    11    12    1
    25    11    38    1
    26    11    39    1
    27    12    13   am
    28    12    23    1
    29    13    14    2
    30    13    15    1
    31    15    16    1
    32    15    22    1
    33    15    17    1
    34    17    18    1
    35    17    40    1
    36    17    41    1
    37    18    19    1
    38    18    42    1
    39    18    43    1
    40    19    20    2
    41    19    21    2
    42    19    22    1
    43    22    44    1
    44    22    45    1
    45    23    24    1
    46    23    46    1
    47    23    47    1
    48    24    25    1
    49    24    48    1
    50    24    49    1
@<TRIPOS>SUBSTRUCTURE
     1 ZINC001065334255        1 TEMP              0 ****  ****    0 ROOT


##########                                Name:    ZINC000623695407
##########                DOCK_Rotatable_Bonds:                  10
##########                         Heavy_Atoms:                  27
##########                    Molecular_Weight:             368.479
##########                DOCK_Rotatable_Bonds:                  10
##########                       Formal_Charge:           0.0299989
##########                     HBond_Acceptors:                   6
##########                        HBond_Donors:                   2
##########                         Heavy_Atoms:                  27
##########                          Grid_Score:          -36.684475
##########                     Grid_vdw_energy:          -35.955311
##########                      Grid_es_energy:           -0.729162
##########           Internal_energy_repulsive:           13.498245

@<TRIPOS>MOLECULE
ZINC000623695407
 55 57 1 0 0
SMALL
USER_CHARGES


@<TRIPOS>ATOM
      1 C1         -9.8514   -1.7816   61.3895 C.3     1  ZINC000623695407    0.0300
      2 O2         -9.0747   -2.0203   60.2139 O.3     1  ZINC000623695407   -0.3200
      3 C3         -9.7160   -1.9204   59.0199 C.ar    1  ZINC000623695407    0.1300
      4 C4        -10.1621   -3.0637   58.3730 C.ar    1  ZINC000623695407   -0.2100
      5 C5        -10.8142   -2.9594   57.1596 C.ar    1  ZINC000623695407   -0.0600
      6 C6        -11.0219   -1.7169   56.5896 C.ar    1  ZINC000623695407   -0.1100
      7 C7        -11.7330   -1.6060   55.2656 C.3     1  ZINC000623695407    0.0600
      8 N8        -11.4663   -2.8081   54.4644 N.3     1  ZINC000623695407   -0.4600
      9 C9        -12.5904   -3.7591   54.5482 C.3     1  ZINC000623695407    0.0000
     10 C10       -12.4186   -4.0087   53.0433 C.3     1  ZINC000623695407   -0.1300
     11 C11       -11.8275   -2.5921   53.0509 C.3     1  ZINC000623695407    0.0100
     12 H12       -12.5729   -1.8097   52.9079 H       1  ZINC000623695407    0.0900
     13 C13       -10.6171   -2.4317   52.1289 C.3     1  ZINC000623695407    0.1600
     14 N14       -10.2448   -1.0168   52.0533 N.am    1  ZINC000623695407   -0.7400
     15 C15        -8.9592   -0.6684   51.8472 C.2     1  ZINC000623695407    0.7100
     16 O16        -8.1083   -1.5283   51.7254 O.2     1  ZINC000623695407   -0.5900
     17 N17        -8.6170    0.6333   51.7761 N.am    1  ZINC000623695407   -0.7400
     18 C18        -7.2193    1.0120   51.5538 C.3     1  ZINC000623695407    0.1700
     19 H19        -6.5647    0.2730   52.0159 H       1  ZINC000623695407    0.0900
     20 C20        -6.9400    1.0719   50.0507 C.3     1  ZINC000623695407   -0.1600
     21 C21        -6.9579    2.3850   52.1763 C.3     1  ZINC000623695407   -0.0900
     22 C22        -8.2684    3.0982   52.3884 C.ar    1  ZINC000623695407   -0.0300
     23 C23        -8.8765    3.7888   51.3514 C.ar    1  ZINC000623695407   -0.1700
     24 C24       -10.0782    4.4309   51.5834 C.ar    1  ZINC000623695407    0.1000
     25 N25       -10.6450    4.3921   52.7734 N.ar    1  ZINC000623695407   -0.4900
     26 C26       -10.0954    3.7451   53.7825 C.ar    1  ZINC000623695407    0.1000
     27 C27        -8.8974    3.0745   53.6238 C.ar    1  ZINC000623695407   -0.1700
     28 C28       -10.5786   -0.5759   57.2326 C.ar    1  ZINC000623695407   -0.0700
     29 C29        -9.9306   -0.6745   58.4487 C.ar    1  ZINC000623695407   -0.1500
     30 H30        -9.2200   -1.8932   62.2710 H       1  ZINC000623695407    0.1000
     31 H31       -10.2563   -0.7700   61.3582 H       1  ZINC000623695407    0.0600
     32 H32       -10.6703   -2.4995   61.4358 H       1  ZINC000623695407    0.0600
     33 H33        -9.9995   -4.0344   58.8175 H       1  ZINC000623695407    0.1300
     34 H34       -11.1617   -3.8491   56.6555 H       1  ZINC000623695407    0.1200
     35 H35       -12.8056   -1.5134   55.4358 H       1  ZINC000623695407    0.0600
     36 H36       -11.3725   -0.7265   54.7320 H       1  ZINC000623695407    0.0700
     37 H37       -12.3741   -4.6342   55.1610 H       1  ZINC000623695407    0.0900
     38 H38       -13.5394   -3.2882   54.8048 H       1  ZINC000623695407    0.0700
     39 H39       -11.6998   -4.7912   52.7999 H       1  ZINC000623695407    0.1000
     40 H40       -13.3570   -4.0979   52.4958 H       1  ZINC000623695407    0.0800
     41 H41        -9.7801   -3.0071   52.5247 H       1  ZINC000623695407    0.0700
     42 H42       -10.8688   -2.7949   51.1324 H       1  ZINC000623695407    0.0700
     43 H43       -10.9234   -0.3308   52.1517 H       1  ZINC000623695407    0.3900
     44 H44        -9.2961    1.3193   51.8721 H       1  ZINC000623695407    0.3900
     45 H45        -5.9001    1.3537   49.8854 H       1  ZINC000623695407    0.0700
     46 H46        -7.1262    0.0937   49.6074 H       1  ZINC000623695407    0.0700
     47 H47        -7.5946    1.8109   49.5887 H       1  ZINC000623695407    0.0600
     48 H48        -6.4533    2.2595   53.1342 H       1  ZINC000623695407    0.1000
     49 H49        -6.3283    2.9729   51.5083 H       1  ZINC000623695407    0.0800
     50 H50        -8.4169    3.8249   50.3748 H       1  ZINC000623695407    0.1300
     51 H51       -10.5585    4.9711   50.7809 H       1  ZINC000623695407    0.1500
     52 H52       -10.5892    3.7358   54.7430 H       1  ZINC000623695407    0.1600
     53 H53        -8.4524    2.5460   54.4540 H       1  ZINC000623695407    0.1400
     54 H54       -10.7423    0.3935   56.7854 H       1  ZINC000623695407    0.1200
     55 H55        -9.5846    0.2170   58.9505 H       1  ZINC000623695407    0.1300
@<TRIPOS>BOND
     1     1     2    1
     2     1    30    1
     3     1    31    1
     4     1    32    1
     5     2     3    1
     6     3    29   ar
     7     3     4   ar
     8     4     5   ar
     9     4    33    1
    10     5     6   ar
    11     5    34    1
    12     6     7    1
    13     6    28   ar
    14     7     8    1
    15     7    35    1
    16     7    36    1
    17     8    11    1
    18     8     9    1
    19     9    10    1
    20     9    37    1
    21     9    38    1
    22    10    11    1
    23    10    39    1
    24    10    40    1
    25    11    12    1
    26    11    13    1
    27    13    14    1
    28    13    41    1
    29    13    42    1
    30    14    15   am
    31    14    43    1
    32    15    16    2
    33    15    17   am
    34    17    18    1
    35    17    44    1
    36    18    19    1
    37    18    20    1
    38    18    21    1
    39    20    45    1
    40    20    46    1
    41    20    47    1
    42    21    22    1
    43    21    48    1
    44    21    49    1
    45    22    27   ar
    46    22    23   ar
    47    23    24   ar
    48    23    50    1
    49    24    25   ar
    50    24    51    1
    51    25    26   ar
    52    26    27   ar
    53    26    52    1
    54    27    53    1
    55    28    29   ar
    56    28    54    1
    57    29    55    1
@<TRIPOS>SUBSTRUCTURE
     1 ZINC000623695407        1 TEMP              0 ****  ****    0 ROOT


##########                                Name:    ZINC001109848453
##########                DOCK_Rotatable_Bonds:                   8
##########                         Heavy_Atoms:                  24
##########                    Molecular_Weight:             328.337
##########                DOCK_Rotatable_Bonds:                   8
##########                       Formal_Charge:          0.00999966
##########                     HBond_Acceptors:                  11
##########                        HBond_Donors:                   2
##########                         Heavy_Atoms:                  24
##########                          Grid_Score:          -36.672386
##########                     Grid_vdw_energy:          -35.985126
##########                      Grid_es_energy:           -0.687261
##########           Internal_energy_repulsive:           10.629164

@<TRIPOS>MOLECULE
ZINC001109848453
 40 43 1 0 0
SMALL
USER_CHARGES


@<TRIPOS>ATOM
      1 O1        -11.4933   -1.5267   54.3597 O.2     1  ZINC001109848453   -0.5000
      2 C2        -11.4108   -2.5510   53.7155 C.2     1  ZINC001109848453    0.5000
      3 C3        -10.7663   -2.5346   52.3533 C.3     1  ZINC001109848453    0.1100
      4 N4         -9.7644   -1.4671   52.3000 N.pl3   1  ZINC001109848453   -0.3700
      5 C5         -8.5653   -1.5170   51.6944 C.2     1  ZINC001109848453    0.2600
      6 N6         -7.9716   -0.3650   51.8738 N.2     1  ZINC001109848453   -0.5400
      7 C7         -8.7570    0.4422   52.5857 C.2     1  ZINC001109848453    0.2000
      8 N8         -9.8685   -0.1860   52.8661 N.2     1  ZINC001109848453   -0.2900
      9 N9        -11.8904   -3.7051   54.2201 N.am    1  ZINC001109848453   -0.7300
     10 C10       -12.5170   -3.7210   55.5443 C.3     1  ZINC001109848453    0.1700
     11 H11       -13.0214   -2.7707   55.7191 H       1  ZINC001109848453    0.1000
     12 C12       -11.4436   -3.9330   56.6138 C.3     1  ZINC001109848453    0.1200
     13 N13       -12.0001   -3.6206   57.9326 N.pl3   1  ZINC001109848453   -0.6800
     14 C14       -11.1554   -3.2985   58.9820 C.2     1  ZINC001109848453    0.4900
     15 N15        -9.9263   -3.7756   59.0175 N.2     1  ZINC001109848453   -0.5300
     16 C16        -9.0992   -3.4744   60.0217 C.2     1  ZINC001109848453    0.1400
     17 C17        -9.4861   -2.6738   61.0362 C.2     1  ZINC001109848453   -0.0500
     18 N18       -10.7495   -2.1514   61.0503 N.pl3   1  ZINC001109848453   -0.1800
     19 N19       -11.3918   -1.3808   61.8545 N.2     1  ZINC001109848453   -0.1000
     20 N20       -12.5807   -1.1868   61.3987 N.2     1  ZINC001109848453   -0.0400
     21 N21       -12.7378   -1.8264   60.2891 N.2     1  ZINC001109848453   -0.2600
     22 C22       -11.6012   -2.4500   60.0226 C.2     1  ZINC001109848453    0.1000
     23 C23       -13.5367   -4.8597   55.6124 C.3     1  ZINC001109848453   -0.1800
     24 C24       -14.8712   -4.5725   56.3035 C.3     1  ZINC001109848453   -0.1700
     25 C25       -14.8131   -4.7155   54.7813 C.3     1  ZINC001109848453   -0.1700
     26 H26       -10.2844   -3.4946   52.1677 H       1  ZINC001109848453    0.1300
     27 H27       -11.5272   -2.3571   51.5934 H       1  ZINC001109848453    0.1200
     28 H28        -8.1620   -2.3610   51.1546 H       1  ZINC001109848453    0.2200
     29 H29        -8.5161    1.4531   52.8798 H       1  ZINC001109848453    0.2200
     30 H30       -11.8209   -4.5250   53.7065 H       1  ZINC001109848453    0.4000
     31 H31       -11.1128   -4.9714   56.5958 H       1  ZINC001109848453    0.1000
     32 H32       -10.5959   -3.2781   56.4127 H       1  ZINC001109848453    0.0900
     33 H33       -12.9600   -3.6393   58.0708 H       1  ZINC001109848453    0.4200
     34 H34        -8.0986   -3.8810   60.0220 H       1  ZINC001109848453    0.2000
     35 H35        -8.7984   -2.4459   61.8371 H       1  ZINC001109848453    0.1900
     36 H36       -13.1177   -5.8600   55.7219 H       1  ZINC001109848453    0.1100
     37 H37       -15.3304   -5.3839   56.8681 H       1  ZINC001109848453    0.1000
     38 H38       -15.0226   -3.5724   56.7096 H       1  ZINC001109848453    0.1000
     39 H39       -14.9264   -3.8094   54.1860 H       1  ZINC001109848453    0.1200
     40 H40       -15.2342   -5.6209   54.3444 H       1  ZINC001109848453    0.0900
@<TRIPOS>BOND
     1     1     2    2
     2     2     3    1
     3     2     9   am
     4     3     4    1
     5     3    26    1
     6     3    27    1
     7     4     8    1
     8     4     5    1
     9     5     6    2
    10     5    28    1
    11     6     7    1
    12     7     8    2
    13     7    29    1
    14     9    10    1
    15     9    30    1
    16    10    11    1
    17    10    12    1
    18    10    23    1
    19    12    13    1
    20    12    31    1
    21    12    32    1
    22    13    14    1
    23    13    33    1
    24    14    22    1
    25    14    15    2
    26    15    16    1
    27    16    17    2
    28    16    34    1
    29    17    18    1
    30    17    35    1
    31    18    22    1
    32    18    19    1
    33    19    20    2
    34    20    21    1
    35    21    22    2
    36    23    25    1
    37    23    24    1
    38    23    36    1
    39    24    25    1
    40    24    37    1
    41    24    38    1
    42    25    39    1
    43    25    40    1
@<TRIPOS>SUBSTRUCTURE
     1 ZINC001109848453        1 TEMP              0 ****  ****    0 ROOT


##########                                Name:    ZINC000967287417
##########                DOCK_Rotatable_Bonds:                   7
##########                         Heavy_Atoms:                  25
##########                    Molecular_Weight:             347.414
##########                DOCK_Rotatable_Bonds:                   7
##########                       Formal_Charge:          -0.0200002
##########                     HBond_Acceptors:                   7
##########                        HBond_Donors:                   1
##########                         Heavy_Atoms:                  25
##########                          Grid_Score:          -36.657478
##########                     Grid_vdw_energy:          -36.162033
##########                      Grid_es_energy:           -0.495445
##########           Internal_energy_repulsive:            7.553543

@<TRIPOS>MOLECULE
ZINC000967287417
 50 52 1 0 0
SMALL
USER_CHARGES


@<TRIPOS>ATOM
      1 C1         -6.3227    1.7060   51.0154 C.3     1  ZINC000967287417    0.0300
      2 O2         -7.5099    1.2335   51.6553 O.3     1  ZINC000967287417   -0.3900
      3 C3         -7.6781   -0.1842   51.5942 C.3     1  ZINC000967287417    0.1400
      4 C4         -8.9542   -0.5694   52.2973 C.2     1  ZINC000967287417    0.0100
      5 C5         -9.4919    0.0709   53.3588 C.2     1  ZINC000967287417   -0.1900
      6 C6        -10.6714   -0.6102   53.6980 C.2     1  ZINC000967287417   -0.1200
      7 C7        -10.7952   -1.6445   52.8153 C.2     1  ZINC000967287417   -0.0700
      8 C8        -11.8821   -2.6287   52.7878 C.2     1  ZINC000967287417    0.6100
      9 O9        -11.9190   -3.4701   51.9093 O.2     1  ZINC000967287417   -0.5200
     10 N10       -12.8402   -2.6013   53.7352 N.am    1  ZINC000967287417   -0.7000
     11 C11       -13.9250   -3.5856   53.7087 C.3     1  ZINC000967287417    0.1600
     12 H12       -14.0698   -3.9401   52.6882 H       1  ZINC000967287417    0.1000
     13 C13       -13.5658   -4.7663   54.6136 C.3     1  ZINC000967287417    0.0400
     14 N14       -13.3903   -4.2923   55.9923 N.3     1  ZINC000967287417   -0.5300
     15 C15       -12.9099   -5.3733   56.8634 C.3     1  ZINC000967287417    0.1300
     16 C16       -11.7413   -4.8805   57.6775 C.2     1  ZINC000967287417    0.0200
     17 N17       -10.6830   -5.5601   58.0132 N.2     1  ZINC000967287417   -0.3500
     18 O18        -9.9159   -4.8943   58.6692 O.3     1  ZINC000967287417    0.1000
     19 C19       -10.3801   -3.6512   58.8585 C.2     1  ZINC000967287417   -0.0300
     20 C20        -9.7036   -2.5420   59.6223 C.3     1  ZINC000967287417   -0.0800
     21 C21       -11.5743   -3.5868   58.2226 C.2     1  ZINC000967287417   -0.2400
     22 C22       -14.6318   -3.7076   56.5149 C.3     1  ZINC000967287417    0.0500
     23 C23       -15.0228   -2.4954   55.6668 C.3     1  ZINC000967287417   -0.1100
     24 C24       -15.2169   -2.9362   54.2125 C.3     1  ZINC000967287417   -0.1000
     25 H25       -16.0328   -3.6568   54.1561 H       1  ZINC000967287417    0.0900
     26 C26       -15.5501   -1.7178   53.3490 C.3     1  ZINC000967287417   -0.1500
     27 O27        -9.7451   -1.5993   51.9694 O.3     1  ZINC000967287417   -0.1600
     28 H28        -6.3436    1.4298   49.9612 H       1  ZINC000967287417    0.0500
     29 H29        -6.2685    2.7910   51.1057 H       1  ZINC000967287417    0.0900
     30 H30        -5.4505    1.2578   51.4913 H       1  ZINC000967287417    0.0500
     31 H31        -7.7281   -0.4996   50.5521 H       1  ZINC000967287417    0.0900
     32 H32        -6.8335   -0.6716   52.0813 H       1  ZINC000967287417    0.0700
     33 H33        -9.0898    0.9427   53.8533 H       1  ZINC000967287417    0.1600
     34 H34       -11.3497   -0.3639   54.5017 H       1  ZINC000967287417    0.1600
     35 H35       -12.8115   -1.9299   54.4348 H       1  ZINC000967287417    0.4100
     36 H36       -14.3672   -5.5046   54.5826 H       1  ZINC000967287417    0.0500
     37 H37       -12.6388   -5.2220   54.2654 H       1  ZINC000967287417    0.0900
     38 H38       -13.7125   -5.6852   57.5318 H       1  ZINC000967287417    0.0600
     39 H39       -12.5960   -6.2198   56.2527 H       1  ZINC000967287417    0.0900
     40 H40        -8.7517   -2.8993   60.0149 H       1  ZINC000967287417    0.0800
     41 H41        -9.5279   -1.6970   58.9565 H       1  ZINC000967287417    0.0900
     42 H42       -10.3421   -2.2276   60.4478 H       1  ZINC000967287417    0.0900
     43 H43       -12.2465   -2.7443   58.1537 H       1  ZINC000967287417    0.1700
     44 H44       -15.4281   -4.4509   56.4751 H       1  ZINC000967287417    0.0400
     45 H45       -14.4791   -3.3944   57.5478 H       1  ZINC000967287417    0.0800
     46 H46       -15.9527   -2.0710   56.0454 H       1  ZINC000967287417    0.0700
     47 H47       -14.2330   -1.7459   55.7174 H       1  ZINC000967287417    0.0700
     48 H48       -14.7327   -0.9989   53.4042 H       1  ZINC000967287417    0.0600
     49 H49       -15.6880   -2.0325   52.3145 H       1  ZINC000967287417    0.0600
     50 H50       -16.4669   -1.2543   53.7131 H       1  ZINC000967287417    0.0600
@<TRIPOS>BOND
     1     1     2    1
     2     1    28    1
     3     1    29    1
     4     1    30    1
     5     2     3    1
     6     3     4    1
     7     3    31    1
     8     3    32    1
     9     4    27    1
    10     4     5    2
    11     5     6    1
    12     5    33    1
    13     6     7    2
    14     6    34    1
    15     7     8    1
    16     7    27    1
    17     8     9    2
    18     8    10   am
    19    10    11    1
    20    10    35    1
    21    11    12    1
    22    11    24    1
    23    11    13    1
    24    13    14    1
    25    13    36    1
    26    13    37    1
    27    14    15    1
    28    14    22    1
    29    15    16    1
    30    15    38    1
    31    15    39    1
    32    16    21    1
    33    16    17    2
    34    17    18    1
    35    18    19    1
    36    19    20    1
    37    19    21    2
    38    20    40    1
    39    20    41    1
    40    20    42    1
    41    21    43    1
    42    22    23    1
    43    22    44    1
    44    22    45    1
    45    23    24    1
    46    23    46    1
    47    23    47    1
    48    24    25    1
    49    24    26    1
    50    26    48    1
    51    26    49    1
    52    26    50    1
@<TRIPOS>SUBSTRUCTURE
     1 ZINC000967287417        1 TEMP              0 ****  ****    0 ROOT


##########                                Name:    ZINC000460163972
##########                DOCK_Rotatable_Bonds:                   7
##########                         Heavy_Atoms:                  28
##########                    Molecular_Weight:             408.469
##########                DOCK_Rotatable_Bonds:                   7
##########                       Formal_Charge:          -0.0100001
##########                     HBond_Acceptors:                   8
##########                        HBond_Donors:                   2
##########                         Heavy_Atoms:                  28
##########                          Grid_Score:          -36.630959
##########                     Grid_vdw_energy:          -36.024044
##########                      Grid_es_energy:           -0.606916
##########           Internal_energy_repulsive:           54.867638

@<TRIPOS>MOLECULE
ZINC000460163972
 50 52 1 0 0
SMALL
USER_CHARGES


@<TRIPOS>ATOM
      1 C1        -11.5818    0.2957   52.3529 C.3     1  ZINC000460163972   -0.1400
      2 C2        -11.5887   -0.3176   53.7293 C.ar    1  ZINC000460163972    0.0100
      3 C3        -11.7573    0.4860   54.8417 C.ar    1  ZINC000460163972   -0.1300
      4 C4        -11.7641   -0.0730   56.1049 C.ar    1  ZINC000460163972   -0.0600
      5 C5        -11.6017   -1.4435   56.2567 C.ar    1  ZINC000460163972    0.1100
      6 N6        -11.6085   -2.0130   57.5348 N.am    1  ZINC000460163972   -0.6700
      7 C7        -10.5110   -1.9350   58.3133 C.2     1  ZINC000460163972    0.5200
      8 O8         -9.5174   -1.3710   57.9059 O.2     1  ZINC000460163972   -0.5100
      9 C9        -10.5183   -2.5483   59.6898 C.3     1  ZINC000460163972   -0.0700
     10 H10       -11.4619   -3.0696   59.8503 H       1  ZINC000460163972    0.1200
     11 C11        -9.3602   -3.5407   59.8120 C.3     1  ZINC000460163972   -0.1500
     12 C12       -10.3615   -1.4634   60.7239 C.ar    1  ZINC000460163972   -0.0600
     13 C13       -10.8536   -0.1961   60.4749 C.ar    1  ZINC000460163972   -0.0700
     14 C14       -10.7109    0.8010   61.4220 C.ar    1  ZINC000460163972   -0.1200
     15 C15       -10.0754    0.5304   62.6210 C.ar    1  ZINC000460163972    0.0700
     16 F16        -9.9360    1.5039   63.5473 F       1  ZINC000460163972   -0.1300
     17 C17        -9.5821   -0.7415   62.8711 C.ar    1  ZINC000460163972    0.0700
     18 F18        -8.9612   -1.0081   64.0410 F       1  ZINC000460163972   -0.1300
     19 C19        -9.7307   -1.7384   61.9231 C.ar    1  ZINC000460163972   -0.1200
     20 C20       -11.4329   -2.2482   55.1372 C.ar    1  ZINC000460163972    0.0000
     21 C21       -11.2569   -3.7363   55.2975 C.3     1  ZINC000460163972   -0.1500
     22 C22       -11.4318   -1.6838   53.8770 C.ar    1  ZINC000460163972   -0.6700
     23 S23       -11.2185   -2.7037   52.4561 S.o2    1  ZINC000460163972    2.7000
     24 O24        -9.9085   -2.4454   51.9697 O.2     1  ZINC000460163972   -0.9500
     25 O25       -11.6703   -4.0004   52.8214 O.2     1  ZINC000460163972   -0.9500
     26 N26       -12.2648   -2.1535   51.2963 N.am    1  ZINC000460163972   -1.0900
     27 C27       -13.7065   -2.1439   51.5556 C.3     1  ZINC000460163972    0.0800
     28 C28       -14.5276   -1.0093   50.9395 C.3     1  ZINC000460163972   -0.1800
     29 C29       -14.6384   -2.4272   50.3756 C.3     1  ZINC000460163972   -0.1900
     30 H30       -12.5798    0.2276   51.9198 H       1  ZINC000460163972    0.1000
     31 H31       -11.2867    1.3427   52.4229 H       1  ZINC000460163972    0.0800
     32 H32       -10.8740   -0.2398   51.7201 H       1  ZINC000460163972    0.0700
     33 H33       -11.8836    1.5520   54.7230 H       1  ZINC000460163972    0.1400
     34 H34       -11.8952    0.5554   56.9735 H       1  ZINC000460163972    0.1600
     35 H35       -12.4030   -2.4640   57.8607 H       1  ZINC000460163972    0.4100
     36 H36        -9.3655   -3.9843   60.8076 H       1  ZINC000460163972    0.0800
     37 H37        -9.4736   -4.3254   59.0640 H       1  ZINC000460163972    0.0700
     38 H38        -8.4165   -3.0194   59.6515 H       1  ZINC000460163972    0.0700
     39 H39       -11.3496    0.0158   59.5393 H       1  ZINC000460163972    0.1400
     40 H40       -11.0952    1.7910   61.2260 H       1  ZINC000460163972    0.1500
     41 H41        -9.3473   -2.7293   62.1167 H       1  ZINC000460163972    0.1500
     42 H42       -12.2164   -4.2332   55.1543 H       1  ZINC000460163972    0.1000
     43 H43       -10.5452   -4.0998   54.5562 H       1  ZINC000460163972    0.1000
     44 H44       -10.8815   -3.9522   56.2978 H       1  ZINC000460163972    0.0700
     45 H45       -11.9228   -1.8375   50.4453 H       1  ZINC000460163972    0.4200
     46 H46       -14.0104   -2.5105   52.5361 H       1  ZINC000460163972    0.1300
     47 H47       -15.3717   -0.6291   51.5148 H       1  ZINC000460163972    0.1100
     48 H48       -13.9950   -0.2699   50.3414 H       1  ZINC000460163972    0.1000
     49 H49       -14.1786   -2.6207   49.4064 H       1  ZINC000460163972    0.1000
     50 H50       -15.5554   -2.9799   50.5799 H       1  ZINC000460163972    0.1000
@<TRIPOS>BOND
     1     1     2    1
     2     1    30    1
     3     1    31    1
     4     1    32    1
     5     2    22   ar
     6     2     3   ar
     7     3     4   ar
     8     3    33    1
     9     4     5   ar
    10     4    34    1
    11     5     6    1
    12     5    20   ar
    13     6     7   am
    14     6    35    1
    15     7     8    2
    16     7     9    1
    17     9    10    1
    18     9    11    1
    19     9    12    1
    20    11    36    1
    21    11    37    1
    22    11    38    1
    23    12    19   ar
    24    12    13   ar
    25    13    14   ar
    26    13    39    1
    27    14    15   ar
    28    14    40    1
    29    15    16    1
    30    15    17   ar
    31    17    18    1
    32    17    19   ar
    33    19    41    1
    34    20    21    1
    35    20    22   ar
    36    21    42    1
    37    21    43    1
    38    21    44    1
    39    22    23    1
    40    23    24    2
    41    23    25    2
    42    23    26   am
    43    26    27    1
    44    26    45    1
    45    27    29    1
    46    27    28    1
    47    27    46    1
    48    28    29    1
    49    28    47    1
    50    28    48    1
    51    29    49    1
    52    29    50    1
@<TRIPOS>SUBSTRUCTURE
     1 ZINC000460163972        1 TEMP              0 ****  ****    0 ROOT


##########                                Name:    ZINC000892249927
##########                DOCK_Rotatable_Bonds:                   8
##########                         Heavy_Atoms:                  27
##########                    Molecular_Weight:             364.487
##########                DOCK_Rotatable_Bonds:                   8
##########                       Formal_Charge:          -0.0300015
##########                     HBond_Acceptors:                   4
##########                        HBond_Donors:                   1
##########                         Heavy_Atoms:                  27
##########                          Grid_Score:          -36.630901
##########                     Grid_vdw_energy:          -36.225853
##########                      Grid_es_energy:           -0.405048
##########           Internal_energy_repulsive:           13.149658

@<TRIPOS>MOLECULE
ZINC000892249927
 55 58 1 0 0
SMALL
USER_CHARGES


@<TRIPOS>ATOM
      1 O1         -9.2196   -1.9113   51.8915 O.2     1  ZINC000892249927   -0.5300
      2 C2         -9.7749   -1.1356   52.6404 C.2     1  ZINC000892249927    0.5100
      3 C3         -9.4241    0.3295   52.6031 C.3     1  ZINC000892249927   -0.1400
      4 C4         -8.0906    0.5164   51.8766 C.3     1  ZINC000892249927   -0.1000
      5 C5         -7.5324    1.9071   52.1849 C.3     1  ZINC000892249927   -0.0800
      6 C6         -6.1079    1.9953   51.7008 C.ar    1  ZINC000892249927   -0.0900
      7 C7         -5.1403    2.5726   52.5015 C.ar    1  ZINC000892249927   -0.1100
      8 C8         -3.8336    2.6535   52.0574 C.ar    1  ZINC000892249927   -0.1100
      9 C9         -3.4946    2.1564   50.8129 C.ar    1  ZINC000892249927   -0.0500
     10 C10        -2.0702    2.2450   50.3287 C.3     1  ZINC000892249927   -0.1200
     11 C11        -1.8373    2.2507   48.8165 C.3     1  ZINC000892249927   -0.1800
     12 C12        -1.6421    3.5346   49.6256 C.3     1  ZINC000892249927   -0.1700
     13 C13        -4.4620    1.5778   50.0128 C.ar    1  ZINC000892249927   -0.1200
     14 C14        -5.7678    1.4935   50.4585 C.ar    1  ZINC000892249927   -0.1100
     15 N15       -10.7097   -1.5829   53.5021 N.am    1  ZINC000892249927   -0.7300
     16 C16       -11.0507   -3.0072   53.5383 C.3     1  ZINC000892249927    0.1400
     17 H17       -10.1500   -3.6019   53.3860 H       1  ZINC000892249927    0.1000
     18 C18       -12.0640   -3.3198   52.4329 C.3     1  ZINC000892249927   -0.1700
     19 C19       -13.3536   -2.5383   52.6978 C.3     1  ZINC000892249927    0.0600
     20 O20       -13.8607   -2.8820   53.9888 O.3     1  ZINC000892249927   -0.3700
     21 C21       -12.9753   -2.5686   55.0658 C.3     1  ZINC000892249927    0.1400
     22 H22       -12.7613   -1.4999   55.0612 H       1  ZINC000892249927    0.0700
     23 C23       -13.6216   -2.9461   56.3738 C.ar    1  ZINC000892249927   -0.1400
     24 C24       -14.4401   -4.0618   56.4560 C.ar    1  ZINC000892249927   -0.0700
     25 C25       -15.0132   -4.3713   57.6803 C.ar    1  ZINC000892249927   -0.1700
     26 C26       -14.7511   -3.5630   58.7700 C.ar    1  ZINC000892249927    0.1000
     27 N27       -13.9668   -2.5089   58.6549 N.ar    1  ZINC000892249927   -0.4900
     28 C28       -13.4010   -2.1876   57.5082 C.ar    1  ZINC000892249927    0.1300
     29 C29       -11.6685   -3.3518   54.8970 C.3     1  ZINC000892249927   -0.1500
     30 H30       -10.2052    0.8769   52.0753 H       1  ZINC000892249927    0.0900
     31 H31        -9.3393    0.7089   53.6214 H       1  ZINC000892249927    0.0900
     32 H32        -7.3838   -0.2419   52.2137 H       1  ZINC000892249927    0.0700
     33 H33        -8.2451    0.4168   50.8022 H       1  ZINC000892249927    0.0700
     34 H34        -8.1353    2.6611   51.6789 H       1  ZINC000892249927    0.0700
     35 H35        -7.5617    2.0801   53.2607 H       1  ZINC000892249927    0.0700
     36 H36        -5.4051    2.9609   53.4739 H       1  ZINC000892249927    0.1200
     37 H37        -3.0777    3.1052   52.6828 H       1  ZINC000892249927    0.1200
     38 H38        -1.3302    1.7411   50.9503 H       1  ZINC000892249927    0.1100
     39 H39        -0.9438    1.7504   48.4431 H       1  ZINC000892249927    0.1000
     40 H40        -2.7143    2.1905   48.1719 H       1  ZINC000892249927    0.1000
     41 H41        -2.3905    4.3190   49.5132 H       1  ZINC000892249927    0.1000
     42 H42        -0.6201    3.8789   49.7842 H       1  ZINC000892249927    0.1000
     43 H43        -4.1970    1.1891   49.0406 H       1  ZINC000892249927    0.1200
     44 H44        -6.5236    1.0414   49.8333 H       1  ZINC000892249927    0.1200
     45 H45       -11.1566   -0.9618   54.0983 H       1  ZINC000892249927    0.4000
     46 H46       -11.6520   -3.0262   51.4674 H       1  ZINC000892249927    0.0800
     47 H47       -12.2800   -4.3882   52.4282 H       1  ZINC000892249927    0.0800
     48 H48       -13.1445   -1.4692   52.6622 H       1  ZINC000892249927    0.0500
     49 H49       -14.0935   -2.7897   51.9379 H       1  ZINC000892249927    0.1000
     50 H50       -14.6275   -4.6752   55.5871 H       1  ZINC000892249927    0.1300
     51 H51       -15.6565   -5.2330   57.7807 H       1  ZINC000892249927    0.1400
     52 H52       -15.1938   -3.7970   59.7269 H       1  ZINC000892249927    0.1600
     53 H53       -12.7646   -1.3166   57.4525 H       1  ZINC000892249927    0.1600
     54 H54       -11.8760   -4.4209   54.9422 H       1  ZINC000892249927    0.0900
     55 H55       -10.9756   -3.0803   55.6935 H       1  ZINC000892249927    0.0800
@<TRIPOS>BOND
     1     1     2    2
     2     2     3    1
     3     2    15   am
     4     3     4    1
     5     3    30    1
     6     3    31    1
     7     4     5    1
     8     4    32    1
     9     4    33    1
    10     5     6    1
    11     5    34    1
    12     5    35    1
    13     6    14   ar
    14     6     7   ar
    15     7     8   ar
    16     7    36    1
    17     8     9   ar
    18     8    37    1
    19     9    10    1
    20     9    13   ar
    21    10    12    1
    22    10    11    1
    23    10    38    1
    24    11    12    1
    25    11    39    1
    26    11    40    1
    27    12    41    1
    28    12    42    1
    29    13    14   ar
    30    13    43    1
    31    14    44    1
    32    15    16    1
    33    15    45    1
    34    16    17    1
    35    16    29    1
    36    16    18    1
    37    18    19    1
    38    18    46    1
    39    18    47    1
    40    19    20    1
    41    19    48    1
    42    19    49    1
    43    20    21    1
    44    21    22    1
    45    21    23    1
    46    21    29    1
    47    23    28   ar
    48    23    24   ar
    49    24    25   ar
    50    24    50    1
    51    25    26   ar
    52    25    51    1
    53    26    27   ar
    54    26    52    1
    55    27    28   ar
    56    28    53    1
    57    29    54    1
    58    29    55    1
@<TRIPOS>SUBSTRUCTURE
     1 ZINC000892249927        1 TEMP              0 ****  ****    0 ROOT


##########                                Name:    ZINC000583220082
##########                DOCK_Rotatable_Bonds:                   9
##########                         Heavy_Atoms:                  29
##########                    Molecular_Weight:             417.492
##########                DOCK_Rotatable_Bonds:                   9
##########                       Formal_Charge:          -0.0400006
##########                     HBond_Acceptors:                  11
##########                        HBond_Donors:                   3
##########                         Heavy_Atoms:                  29
##########                          Grid_Score:          -36.612186
##########                     Grid_vdw_energy:          -35.585281
##########                      Grid_es_energy:           -1.026906
##########           Internal_energy_repulsive:           17.101587

@<TRIPOS>MOLECULE
ZINC000583220082
 52 54 1 0 0
SMALL
USER_CHARGES


@<TRIPOS>ATOM
      1 C1        -14.2374   -1.5824   47.8876 C.3     1  ZINC000583220082    0.0800
      2 N2        -14.4585   -0.7216   49.0522 N.am    1  ZINC000583220082   -0.6300
      3 C3        -14.3744    0.7344   48.9135 C.3     1  ZINC000583220082    0.0800
      4 C4        -14.7393   -1.2692   50.2512 C.2     1  ZINC000583220082    0.5100
      5 O5        -14.8103   -2.4746   50.3657 O.2     1  ZINC000583220082   -0.5300
      6 C6        -14.9650   -0.3839   51.4496 C.3     1  ZINC000583220082   -0.1000
      7 C7        -14.4046   -1.0506   52.6795 C.ar    1  ZINC000583220082   -0.0800
      8 C8        -15.1325   -2.0350   53.3227 C.ar    1  ZINC000583220082   -0.0800
      9 C9        -14.6221   -2.6481   54.4499 C.ar    1  ZINC000583220082   -0.1400
     10 C10       -13.3756   -2.2754   54.9372 C.ar    1  ZINC000583220082    0.1400
     11 N11       -12.8559   -2.8940   56.0773 N.am    1  ZINC000583220082   -0.6400
     12 C12       -11.7410   -3.6457   55.9870 C.2     1  ZINC000583220082    0.5100
     13 O13       -11.1882   -3.7854   54.9155 O.2     1  ZINC000583220082   -0.4900
     14 C14       -11.1855   -4.3069   57.2057 C.2     1  ZINC000583220082    0.5100
     15 O15       -11.3104   -5.5046   57.3566 O.2     1  ZINC000583220082   -0.5100
     16 N16       -10.5453   -3.5735   58.1377 N.am    1  ZINC000583220082   -0.5800
     17 C17       -10.3881   -2.1199   57.9775 C.3     1  ZINC000583220082    0.0600
     18 C18       -10.8700   -1.4339   59.2601 C.3     1  ZINC000583220082    0.0300
     19 N19       -10.1677   -2.0111   60.4140 N.3     1  ZINC000583220082   -0.4300
     20 C20       -10.4549   -1.3098   61.5705 C.2     1  ZINC000583220082    0.2900
     21 N21       -11.6219   -0.8313   61.9472 N.2     1  ZINC000583220082   -0.5700
     22 C22       -11.6574   -0.1922   63.0983 C.2     1  ZINC000583220082    0.5400
     23 N23       -12.8452    0.3514   63.5856 N.pl3   1  ZINC000583220082   -0.8200
     24 N24       -10.5404   -0.0859   63.7673 N.2     1  ZINC000583220082   -0.5500
     25 S25        -9.3643   -0.8803   62.8330 S.3     1  ZINC000583220082    0.2000
     26 C26       -10.4833   -3.4372   60.5710 C.3     1  ZINC000583220082    0.0500
     27 C27        -9.9908   -4.2045   59.3450 C.3     1  ZINC000583220082    0.1100
     28 C28       -12.6470   -1.2864   54.2884 C.ar    1  ZINC000583220082   -0.1200
     29 C29       -13.1613   -0.6809   53.1589 C.ar    1  ZINC000583220082   -0.0800
     30 H30       -13.1789   -1.8331   47.8167 H       1  ZINC000583220082    0.0500
     31 H31       -14.8208   -2.4968   47.9954 H       1  ZINC000583220082    0.0800
     32 H32       -14.5478   -1.0579   46.9839 H       1  ZINC000583220082    0.0700
     33 H33       -14.1404    0.9879   47.8795 H       1  ZINC000583220082    0.0800
     34 H34       -15.3292    1.1814   49.1900 H       1  ZINC000583220082    0.0600
     35 H35       -13.5910    1.1170   49.5676 H       1  ZINC000583220082    0.0600
     36 H36       -14.4645    0.5719   51.2947 H       1  ZINC000583220082    0.1000
     37 H37       -16.0340   -0.2170   51.5820 H       1  ZINC000583220082    0.1000
     38 H38       -16.1014   -2.3244   52.9432 H       1  ZINC000583220082    0.1300
     39 H39       -15.1913   -3.4163   54.9521 H       1  ZINC000583220082    0.1300
     40 H40       -13.2977   -2.7824   56.9337 H       1  ZINC000583220082    0.4200
     41 H41        -9.3382   -1.8817   57.8071 H       1  ZINC000583220082    0.0900
     42 H42       -10.9858   -1.7779   57.1326 H       1  ZINC000583220082    0.1700
     43 H43       -10.6590   -0.3660   59.2029 H       1  ZINC000583220082    0.1100
     44 H44       -11.9432   -1.5873   59.3736 H       1  ZINC000583220082    0.0700
     45 H45       -12.8270    0.9526   64.3466 H       1  ZINC000583220082    0.4200
     46 H46       -13.6897    0.1285   63.1636 H       1  ZINC000583220082    0.4200
     47 H47        -9.9916   -3.8223   61.4644 H       1  ZINC000583220082    0.1100
     48 H48       -11.5618   -3.5627   60.6661 H       1  ZINC000583220082    0.0600
     49 H49       -10.3231   -5.2409   59.4039 H       1  ZINC000583220082    0.1100
     50 H50        -8.9023   -4.1678   59.3030 H       1  ZINC000583220082    0.0900
     51 H51       -11.6776   -0.9943   54.6646 H       1  ZINC000583220082    0.1400
     52 H52       -12.5954    0.0880   52.6539 H       1  ZINC000583220082    0.1300
@<TRIPOS>BOND
     1     1     2    1
     2     1    30    1
     3     1    31    1
     4     1    32    1
     5     2     3    1
     6     2     4   am
     7     3    33    1
     8     3    34    1
     9     3    35    1
    10     4     5    2
    11     4     6    1
    12     6     7    1
    13     6    36    1
    14     6    37    1
    15     7    29   ar
    16     7     8   ar
    17     8     9   ar
    18     8    38    1
    19     9    10   ar
    20     9    39    1
    21    10    11    1
    22    10    28   ar
    23    11    12   am
    24    11    40    1
    25    12    13    2
    26    12    14    1
    27    14    15    2
    28    14    16   am
    29    16    27    1
    30    16    17    1
    31    17    18    1
    32    17    41    1
    33    17    42    1
    34    18    19    1
    35    18    43    1
    36    18    44    1
    37    19    20    1
    38    19    26    1
    39    20    25    1
    40    20    21    2
    41    21    22    1
    42    22    23    1
    43    22    24    2
    44    23    45    1
    45    23    46    1
    46    24    25    1
    47    26    27    1
    48    26    47    1
    49    26    48    1
    50    27    49    1
    51    27    50    1
    52    28    29   ar
    53    28    51    1
    54    29    52    1
@<TRIPOS>SUBSTRUCTURE
     1 ZINC000583220082        1 TEMP              0 ****  ****    0 ROOT


##########                                Name:     oleObject17.pdb
##########                DOCK_Rotatable_Bonds:                   8
##########                         Heavy_Atoms:                  29
##########                    Molecular_Weight:             435.393
##########                DOCK_Rotatable_Bonds:                   8
##########                       Formal_Charge:         0.000400059
##########                     HBond_Acceptors:                   6
##########                        HBond_Donors:                   0
##########                         Heavy_Atoms:                  29
##########                          Grid_Score:          -36.572945
##########                     Grid_vdw_energy:          -36.542267
##########                      Grid_es_energy:           -0.030679
##########           Internal_energy_repulsive:           19.895403

@<TRIPOS>MOLECULE
oleObject17.pdb
 57 59 1 0 0
SMALL
NO_CHARGES


@<TRIPOS>ATOM
      1 C          -6.1974    1.3013   51.1112 C.3     1  UNL         0.0391
      2 C          -4.9768    2.1339   51.5093 C.ar    1  UNL        -0.0277
      3 C          -3.8587    2.3136   50.6562 C.ar    1  UNL        -0.0463
      4 C          -2.7578    3.0682   51.1075 C.ar    1  UNL        -0.0590
      5 C          -2.7583    3.6441   52.3862 C.ar    1  UNL        -0.0620
      6 C          -3.8699    3.4821   53.2236 C.ar    1  UNL        -0.0619
      7 C          -4.9730    2.7360   52.7830 C.ar    1  UNL        -0.0572
      8 C          -3.8050    1.7210   49.2524 C.3     1  UNL        -0.0394
      9 N          -7.4617    1.8471   51.6498 N.am    1  UNL        -0.3003
     10 C          -8.4156    1.0123   52.2314 C.2     1  UNL         0.2175
     11 O          -8.1033   -0.1116   52.5866 O.2     1  UNL        -0.2772
     12 C          -9.7045    1.6931   52.7630 C.3     1  UNL         0.0384
     13 C          -9.4774    2.4423   54.1004 C.3     1  UNL        -0.0289
     14 C          -9.2235    1.4597   55.2601 C.3     1  UNL        -0.0010
     15 N         -10.3345    0.4954   55.4167 N.4     1  UNL        -0.3010
     16 C         -10.6895   -0.2383   54.1793 C.3     1  UNL        -0.0010
     17 C         -10.8798    0.6964   52.9568 C.3     1  UNL        -0.0289
     18 C         -10.1926   -0.3747   56.6065 C.3     1  UNL         0.0222
     19 C         -10.2982    0.3874   57.9479 C.3     1  UNL         0.0661
     20 O         -10.8277   -0.5099   58.9384 O.3     1  UNL        -0.3432
     21 C         -10.4867   -0.4356   60.2754 C.ar    1  UNL         0.0937
     22 C         -10.9706    0.5925   61.1131 C.ar    1  UNL        -0.0288
     23 C         -10.6077    0.6291   62.4695 C.ar    1  UNL        -0.0408
     24 C          -9.7590   -0.3567   62.9967 C.ar    1  UNL         0.0422
     25 C          -9.2703   -1.3800   62.1696 C.ar    1  UNL        -0.0221
     26 C          -9.6322   -1.4197   60.8126 C.ar    1  UNL         0.0723
     27 CL         -9.0090   -2.7150   59.8078 Cl      1  UNL        -0.0814
     28 CL         -9.3090   -0.3090   64.6879 Cl      1  UNL        -0.0843
     29 C          -7.6455    3.3046   51.5246 C.3     1  UNL         0.0031
     30 H          -6.0975    0.2651   51.4531 H       1  UNL         0.0520
     31 H          -6.2474    1.2659   50.0157 H       1  UNL         0.0520
     32 H          -1.8935    3.2102   50.4650 H       1  UNL         0.0626
     33 H          -1.9016    4.2204   52.7239 H       1  UNL         0.0623
     34 H          -3.8765    3.9315   54.2124 H       1  UNL         0.0623
     35 H          -5.8271    2.6132   53.4423 H       1  UNL         0.0626
     36 H          -4.6778    2.0234   48.6607 H       1  UNL         0.0280
     37 H          -3.7758    0.6259   49.2838 H       1  UNL         0.0280
     38 H          -2.9146    2.0545   48.7054 H       1  UNL         0.0280
     39 H         -10.0184    2.4241   52.0085 H       1  UNL         0.0402
     40 H         -10.3662    3.0429   54.3332 H       1  UNL         0.0288
     41 H          -8.6425    3.1466   54.0238 H       1  UNL         0.0288
     42 H          -9.0909    2.0311   56.1877 H       1  UNL         0.0431
     43 H          -8.2880    0.9247   55.0608 H       1  UNL         0.0431
     44 H         -11.6181   -0.8012   54.3390 H       1  UNL         0.0431
     45 H          -9.9077   -0.9696   53.9456 H       1  UNL         0.0431
     46 H         -11.8059    1.2680   53.1000 H       1  UNL         0.0288
     47 H         -11.0218    0.0972   52.0483 H       1  UNL         0.0288
     48 H          -9.2246   -0.8907   56.5698 H       1  UNL         0.0455
     49 H         -10.9721   -1.1470   56.5831 H       1  UNL         0.0455
     50 H         -10.9699    1.2464   57.8380 H       1  UNL         0.0586
     51 H          -9.3087    0.7471   58.2546 H       1  UNL         0.0586
     52 H         -11.6249    1.3670   60.7265 H       1  UNL         0.0651
     53 H         -10.9840    1.4222   63.1096 H       1  UNL         0.0639
     54 H          -8.6131   -2.1421   62.5787 H       1  UNL         0.0655
     55 H          -7.1826    3.6674   50.5982 H       1  UNL         0.0433
     56 H          -7.1834    3.8173   52.3768 H       1  UNL         0.0433
     57 H          -8.7140    3.5503   51.4899 H       1  UNL         0.0433
@<TRIPOS>BOND
     1     1     2    1
     2     1     9    1
     3     1    30    1
     4     1    31    1
     5     2     3   ar
     6     2     7   ar
     7     3     4   ar
     8     3     8    1
     9     4     5   ar
    10     4    32    1
    11     5     6   ar
    12     5    33    1
    13     6     7   ar
    14     6    34    1
    15     7    35    1
    16     8    36    1
    17     8    37    1
    18     8    38    1
    19     9    10   am
    20     9    29    1
    21    10    11    2
    22    10    12    1
    23    12    13    1
    24    12    17    1
    25    12    39    1
    26    13    14    1
    27    13    40    1
    28    13    41    1
    29    14    15    1
    30    14    42    1
    31    14    43    1
    32    15    16    1
    33    15    18    1
    34    16    17    1
    35    16    44    1
    36    16    45    1
    37    17    46    1
    38    17    47    1
    39    18    19    1
    40    18    48    1
    41    18    49    1
    42    19    20    1
    43    19    50    1
    44    19    51    1
    45    20    21    1
    46    21    22   ar
    47    21    26   ar
    48    22    23   ar
    49    22    52    1
    50    23    24   ar
    51    23    53    1
    52    24    25   ar
    53    24    28    1
    54    25    26   ar
    55    25    54    1
    56    26    27    1
    57    29    55    1
    58    29    56    1
    59    29    57    1
@<TRIPOS>SUBSTRUCTURE
     1 UNL         1 TEMP              0 ****  ****    0 ROOT


##########                                Name:    ZINC000859496582
##########                DOCK_Rotatable_Bonds:                  10
##########                         Heavy_Atoms:                  26
##########                    Molecular_Weight:             361.438
##########                DOCK_Rotatable_Bonds:                  10
##########                       Formal_Charge:           0.0100006
##########                     HBond_Acceptors:                   6
##########                        HBond_Donors:                   0
##########                         Heavy_Atoms:                  26
##########                          Grid_Score:          -36.554970
##########                     Grid_vdw_energy:          -35.988411
##########                      Grid_es_energy:           -0.566558
##########           Internal_energy_repulsive:           12.032596

@<TRIPOS>MOLECULE
ZINC000859496582
 53 54 1 0 0
SMALL
USER_CHARGES


@<TRIPOS>ATOM
      1 C1         -4.4822    1.7335   50.6102 C.3     1  ZINC000859496582    0.0300
      2 O2         -5.4410    0.9890   51.4069 O.3     1  ZINC000859496582   -0.3600
      3 C3         -6.5857    0.6303   50.8046 C.2     1  ZINC000859496582    0.4600
      4 O4         -6.7804    0.9295   49.6502 O.2     1  ZINC000859496582   -0.5100
      5 C5         -7.6279   -0.1454   51.5681 C.3     1  ZINC000859496582   -0.1100
      6 C6         -8.5870    0.8287   52.2553 C.3     1  ZINC000859496582   -0.1100
      7 C7         -9.4558    0.0669   53.2582 C.3     1  ZINC000859496582   -0.1200
      8 C8        -10.1033   -1.1329   52.5638 C.3     1  ZINC000859496582    0.0700
      9 O9        -11.1338   -1.6903   53.4215 O.3     1  ZINC000859496582   -0.3500
     10 C10       -11.7633   -2.7911   52.9813 C.2     1  ZINC000859496582    0.4700
     11 O11       -11.3822   -3.3441   51.9771 O.2     1  ZINC000859496582   -0.5000
     12 C12       -12.9456   -3.3370   53.7398 C.3     1  ZINC000859496582   -0.1000
     13 H13       -12.8115   -4.4064   53.9021 H       1  ZINC000859496582    0.1200
     14 C14       -14.2242   -3.0992   52.9330 C.3     1  ZINC000859496582   -0.1100
     15 C15       -15.4213   -3.6824   53.6872 C.3     1  ZINC000859496582   -0.1300
     16 C16       -15.5631   -2.9738   55.0380 C.3     1  ZINC000859496582    0.1100
     17 N17       -14.2878   -3.0736   55.7606 N.am    1  ZINC000859496582   -0.6100
     18 C18       -14.2455   -3.5678   57.0138 C.2     1  ZINC000859496582    0.5700
     19 O19       -15.2688   -3.9360   57.5567 O.2     1  ZINC000859496582   -0.5300
     20 C20       -12.9545   -3.6620   57.7280 C.ar    1  ZINC000859496582   -0.1400
     21 C21       -12.1969   -4.8321   57.6554 C.ar    1  ZINC000859496582   -0.0900
     22 C22       -10.9929   -4.9133   58.3239 C.ar    1  ZINC000859496582   -0.1200
     23 C23       -10.5361   -3.8383   59.0656 C.ar    1  ZINC000859496582   -0.0600
     24 C24        -9.2201   -3.9343   59.7936 C.3     1  ZINC000859496582   -0.1200
     25 C25       -11.2819   -2.6753   59.1413 C.ar    1  ZINC000859496582   -0.1200
     26 C26       -12.4851   -2.5792   58.4733 C.ar    1  ZINC000859496582   -0.0600
     27 C27       -13.0590   -2.6250   55.0915 C.3     1  ZINC000859496582    0.1100
     28 H28        -4.9373    2.6633   50.2690 H       1  ZINC000859496582    0.0600
     29 H29        -3.6043    1.9594   51.2157 H       1  ZINC000859496582    0.1000
     30 H30        -4.1849    1.1366   49.7481 H       1  ZINC000859496582    0.0600
     31 H31        -8.1860   -0.7795   50.8792 H       1  ZINC000859496582    0.1100
     32 H32        -7.1405   -0.7664   52.3197 H       1  ZINC000859496582    0.1100
     33 H33        -8.0141    1.5942   52.7786 H       1  ZINC000859496582    0.0800
     34 H34        -9.2243    1.2999   51.5069 H       1  ZINC000859496582    0.0800
     35 H35        -8.8362   -0.2821   54.0842 H       1  ZINC000859496582    0.0800
     36 H36       -10.2332    0.7281   53.6412 H       1  ZINC000859496582    0.0800
     37 H37       -10.5489   -0.8111   51.6225 H       1  ZINC000859496582    0.0700
     38 H38        -9.3454   -1.8910   52.3666 H       1  ZINC000859496582    0.0700
     39 H39       -14.3706   -2.0283   52.7917 H       1  ZINC000859496582    0.0800
     40 H40       -14.1358   -3.5847   51.9611 H       1  ZINC000859496582    0.0800
     41 H41       -16.3282   -3.5335   53.1011 H       1  ZINC000859496582    0.0900
     42 H42       -15.2641   -4.7486   53.8504 H       1  ZINC000859496582    0.0700
     43 H43       -15.8103   -1.9246   54.8759 H       1  ZINC000859496582    0.0700
     44 H44       -16.3514   -3.4513   55.6201 H       1  ZINC000859496582    0.1000
     45 H45       -12.5528   -5.6722   57.0774 H       1  ZINC000859496582    0.1300
     46 H46       -10.4058   -5.8181   58.2686 H       1  ZINC000859496582    0.1300
     47 H47        -8.4177   -3.5918   59.1404 H       1  ZINC000859496582    0.0800
     48 H48        -9.2527   -3.3105   60.6868 H       1  ZINC000859496582    0.0700
     49 H49        -9.0383   -4.9701   60.0803 H       1  ZINC000859496582    0.0700
     50 H50       -10.9196   -1.8397   59.7216 H       1  ZINC000859496582    0.1300
     51 H51       -13.0662   -1.6707   58.5329 H       1  ZINC000859496582    0.1300
     52 H52       -12.1955   -2.8722   55.7091 H       1  ZINC000859496582    0.1100
     53 H53       -13.1015   -1.5473   54.9335 H       1  ZINC000859496582    0.0800
@<TRIPOS>BOND
     1     1     2    1
     2     1    28    1
     3     1    29    1
     4     1    30    1
     5     2     3    1
     6     3     4    2
     7     3     5    1
     8     5     6    1
     9     5    31    1
    10     5    32    1
    11     6     7    1
    12     6    33    1
    13     6    34    1
    14     7     8    1
    15     7    35    1
    16     7    36    1
    17     8     9    1
    18     8    37    1
    19     8    38    1
    20     9    10    1
    21    10    11    2
    22    10    12    1
    23    12    13    1
    24    12    27    1
    25    12    14    1
    26    14    15    1
    27    14    39    1
    28    14    40    1
    29    15    16    1
    30    15    41    1
    31    15    42    1
    32    16    17    1
    33    16    43    1
    34    16    44    1
    35    17    18   am
    36    17    27    1
    37    18    19    2
    38    18    20    1
    39    20    26   ar
    40    20    21   ar
    41    21    22   ar
    42    21    45    1
    43    22    23   ar
    44    22    46    1
    45    23    24    1
    46    23    25   ar
    47    24    47    1
    48    24    48    1
    49    24    49    1
    50    25    26   ar
    51    25    50    1
    52    26    51    1
    53    27    52    1
    54    27    53    1
@<TRIPOS>SUBSTRUCTURE
     1 ZINC000859496582        1 TEMP              0 ****  ****    0 ROOT


##########                                Name:    ZINC000572148596
##########                DOCK_Rotatable_Bonds:                   4
##########                         Heavy_Atoms:                  26
##########                    Molecular_Weight:             371.463
##########                DOCK_Rotatable_Bonds:                   4
##########                       Formal_Charge:          -0.0199999
##########                     HBond_Acceptors:                   8
##########                        HBond_Donors:                   0
##########                         Heavy_Atoms:                  26
##########                          Grid_Score:          -36.460243
##########                     Grid_vdw_energy:          -36.180817
##########                      Grid_es_energy:           -0.279428
##########           Internal_energy_repulsive:            7.703591

@<TRIPOS>MOLECULE
ZINC000572148596
 47 50 1 0 0
SMALL
USER_CHARGES


@<TRIPOS>ATOM
      1 C1        -13.7311   -5.5116   56.7536 C.3     1  ZINC000572148596   -0.1400
      2 C2        -13.2985   -4.0619   56.5248 C.3     1  ZINC000572148596    0.0800
      3 H3        -14.1727   -3.4119   56.5611 H       1  ZINC000572148596    0.1200
      4 C4        -12.3235   -3.6531   57.5987 C.2     1  ZINC000572148596    0.1800
      5 N5        -11.0734   -4.0034   57.6743 N.2     1  ZINC000572148596   -0.3500
      6 O6        -10.5530   -3.5120   58.6534 O.3     1  ZINC000572148596    0.0900
      7 C7        -11.4532   -2.7738   59.3216 C.2     1  ZINC000572148596    0.2300
      8 C8        -11.2208   -2.0117   60.5644 C.ar    1  ZINC000572148596   -0.1200
      9 C9        -12.2919   -1.4089   61.2398 C.ar    1  ZINC000572148596   -0.0100
     10 C10       -12.0300   -0.7115   62.3891 C.ar    1  ZINC000572148596   -0.1900
     11 C11       -10.7187   -0.6216   62.8503 C.ar    1  ZINC000572148596    0.3400
     12 N12       -10.4501    0.0832   64.0135 N.3     1  ZINC000572148596   -0.4700
     13 C13       -10.6375    1.5271   63.8100 C.3     1  ZINC000572148596    0.0300
     14 C14       -10.3892    2.2597   65.1312 C.3     1  ZINC000572148596    0.0900
     15 H15       -10.4712    3.3350   64.9721 H       1  ZINC000572148596    0.1100
     16 C16       -11.4267    1.8157   66.1644 C.3     1  ZINC000572148596   -0.1800
     17 O17        -9.0771    1.9456   65.6054 O.3     1  ZINC000572148596   -0.3700
     18 C18        -8.8600    0.5477   65.8152 C.3     1  ZINC000572148596    0.0800
     19 H19        -9.5541    0.1811   66.5713 H       1  ZINC000572148596    0.0700
     20 C20        -7.4227    0.3192   66.2874 C.3     1  ZINC000572148596   -0.1400
     21 C21        -9.0928   -0.2022   64.5009 C.3     1  ZINC000572148596    0.0300
     22 N22        -9.7240   -1.2010   62.1926 N.ar    1  ZINC000572148596   -0.5200
     23 C23        -9.9331   -1.8856   61.0871 C.ar    1  ZINC000572148596    0.1900
     24 N24       -12.5869   -2.8573   58.6466 N.2     1  ZINC000572148596   -0.4700
     25 C25       -12.6389   -3.9416   55.1752 C.2     1  ZINC000572148596    0.0400
     26 N26       -11.6621   -3.1451   54.8989 N.2     1  ZINC000572148596   -0.4500
     27 C27       -11.2005   -3.1657   53.6648 C.2     1  ZINC000572148596    0.0400
     28 C28       -11.8225   -4.0279   52.8549 C.2     1  ZINC000572148596   -0.2500
     29 S29       -13.0716   -4.8460   53.7902 S.3     1  ZINC000572148596    0.1400
     30 H30       -12.8569   -6.1617   56.7172 H       1  ZINC000572148596    0.0800
     31 H31       -14.2082   -5.5986   57.7297 H       1  ZINC000572148596    0.0700
     32 H32       -14.4363   -5.8073   55.9768 H       1  ZINC000572148596    0.0800
     33 H33       -13.3002   -1.4924   60.8622 H       1  ZINC000572148596    0.1500
     34 H34       -12.8327   -0.2353   62.9326 H       1  ZINC000572148596    0.1500
     35 H35        -9.9330    1.8832   63.0584 H       1  ZINC000572148596    0.0600
     36 H36       -11.6567    1.7179   63.4739 H       1  ZINC000572148596    0.1000
     37 H37       -11.3433    0.7407   66.3242 H       1  ZINC000572148596    0.0700
     38 H38       -11.2495    2.3376   67.1048 H       1  ZINC000572148596    0.0600
     39 H39       -12.4265    2.0524   65.8003 H       1  ZINC000572148596    0.0700
     40 H40        -7.2573    0.8564   67.2212 H       1  ZINC000572148596    0.0700
     41 H41        -7.2579   -0.7464   66.4470 H       1  ZINC000572148596    0.0700
     42 H42        -6.7290    0.6847   65.5301 H       1  ZINC000572148596    0.0600
     43 H43        -8.9843   -1.2736   64.6692 H       1  ZINC000572148596    0.1000
     44 H44        -8.3635    0.1263   63.7604 H       1  ZINC000572148596    0.0600
     45 H45        -9.1001   -2.3452   60.5758 H       1  ZINC000572148596    0.1700
     46 H46       -10.3864   -2.5374   53.3349 H       1  ZINC000572148596    0.1800
     47 H47       -11.5968   -4.1961   51.8122 H       1  ZINC000572148596    0.1800
@<TRIPOS>BOND
     1     1     2    1
     2     1    30    1
     3     1    31    1
     4     1    32    1
     5     2     3    1
     6     2     4    1
     7     2    25    1
     8     4    24    1
     9     4     5    2
    10     5     6    1
    11     6     7    1
    12     7     8    1
    13     7    24    2
    14     8    23   ar
    15     8     9   ar
    16     9    10   ar
    17     9    33    1
    18    10    11   ar
    19    10    34    1
    20    11    12    1
    21    11    22   ar
    22    12    21    1
    23    12    13    1
    24    13    14    1
    25    13    35    1
    26    13    36    1
    27    14    15    1
    28    14    16    1
    29    14    17    1
    30    16    37    1
    31    16    38    1
    32    16    39    1
    33    17    18    1
    34    18    19    1
    35    18    20    1
    36    18    21    1
    37    20    40    1
    38    20    41    1
    39    20    42    1
    40    21    43    1
    41    21    44    1
    42    22    23   ar
    43    23    45    1
    44    25    29    1
    45    25    26    2
    46    26    27    1
    47    27    28    2
    48    27    46    1
    49    28    29    1
    50    28    47    1
@<TRIPOS>SUBSTRUCTURE
     1 ZINC000572148596        1 TEMP              0 ****  ****    0 ROOT


##########                                Name:    ZINC000481838178
##########                DOCK_Rotatable_Bonds:                   6
##########                         Heavy_Atoms:                  29
##########                    Molecular_Weight:             408.524
##########                DOCK_Rotatable_Bonds:                   6
##########                       Formal_Charge:         -0.00999962
##########                     HBond_Acceptors:                   7
##########                        HBond_Donors:                   0
##########                         Heavy_Atoms:                  29
##########                          Grid_Score:          -36.455067
##########                     Grid_vdw_energy:          -36.418617
##########                      Grid_es_energy:           -0.036451
##########           Internal_energy_repulsive:            7.892268

@<TRIPOS>MOLECULE
ZINC000481838178
 53 57 1 0 0
SMALL
USER_CHARGES


@<TRIPOS>ATOM
      1 O1         -3.8345    2.3845   51.7577 O.2     1  ZINC000481838178   -0.5200
      2 C2         -4.1591    1.8996   50.6944 C.2     1  ZINC000481838178    0.5500
      3 C3         -5.4251    1.0887   50.5913 C.3     1  ZINC000481838178   -0.1500
      4 S4         -6.6417    1.7163   51.7753 S.3     1  ZINC000481838178    0.1000
      5 C5         -7.7658    0.3599   51.8071 C.2     1  ZINC000481838178    0.1600
      6 N6         -7.5121   -0.8716   51.4250 N.2     1  ZINC000481838178   -0.2800
      7 N7         -8.5533   -1.6082   51.5812 N.2     1  ZINC000481838178   -0.2500
      8 C8         -9.5408   -0.8929   52.0743 C.2     1  ZINC000481838178    0.2700
      9 C9        -10.8940   -1.3723   52.3940 C.2     1  ZINC000481838178    0.0300
     10 C10       -11.6056   -2.2928   51.6841 C.2     1  ZINC000481838178   -0.1300
     11 C11       -12.8394   -2.4487   52.3449 C.2     1  ZINC000481838178   -0.2100
     12 C12       -12.8229   -1.6268   53.4131 C.2     1  ZINC000481838178   -0.0100
     13 O13       -11.6445   -0.9825   53.4434 O.3     1  ZINC000481838178   -0.1700
     14 N14        -9.0643    0.3912   52.2402 N.pl3   1  ZINC000481838178   -0.4100
     15 C15        -9.7653    1.4977   52.7390 C.ar    1  ZINC000481838178    0.1000
     16 C16        -9.2358    2.2433   53.7836 C.ar    1  ZINC000481838178   -0.0800
     17 C17        -9.9289    3.3331   54.2731 C.ar    1  ZINC000481838178   -0.1100
     18 C18       -11.1490    3.6819   53.7237 C.ar    1  ZINC000481838178   -0.1000
     19 C19       -11.6789    2.9413   52.6831 C.ar    1  ZINC000481838178   -0.1100
     20 C20       -10.9878    1.8538   52.1856 C.ar    1  ZINC000481838178   -0.0900
     21 N21        -3.3906    2.0908   49.6039 N.am    1  ZINC000481838178   -0.6200
     22 C22        -3.6692    1.5695   48.2389 C.3     1  ZINC000481838178    0.1000
     23 C23        -2.9304    2.5588   47.3299 C.3     1  ZINC000481838178   -0.1100
     24 H24        -3.4656    3.5062   47.2669 H       1  ZINC000481838178    0.0900
     25 C25        -2.5607    2.0524   45.9484 C.3     1  ZINC000481838178   -0.1100
     26 C26        -1.7350    3.1572   45.2683 C.3     1  ZINC000481838178   -0.1200
     27 C27        -0.4962    3.5162   46.0824 C.3     1  ZINC000481838178   -0.1200
     28 C28        -0.8577    3.8838   47.5316 C.3     1  ZINC000481838178   -0.1000
     29 C29        -1.6027    2.7136   48.1310 C.3     1  ZINC000481838178   -0.1100
     30 H30        -1.0138    1.8025   48.0240 H       1  ZINC000481838178    0.0900
     31 C31        -2.1240    2.8629   49.5570 C.3     1  ZINC000481838178    0.1200
     32 H32        -5.8265    1.1686   49.5810 H       1  ZINC000481838178    0.1300
     33 H33        -5.2068    0.0442   50.8140 H       1  ZINC000481838178    0.1300
     34 H34       -11.2854   -2.8033   50.7879 H       1  ZINC000481838178    0.1600
     35 H35       -13.6465   -3.1031   52.0510 H       1  ZINC000481838178    0.1600
     36 H36       -13.6229   -1.5092   54.1290 H       1  ZINC000481838178    0.2100
     37 H37        -8.2831    1.9711   54.2134 H       1  ZINC000481838178    0.1300
     38 H38        -9.5177    3.9133   55.0859 H       1  ZINC000481838178    0.1400
     39 H39       -11.6893    4.5343   54.1083 H       1  ZINC000481838178    0.1300
     40 H40       -12.6323    3.2159   52.2563 H       1  ZINC000481838178    0.1400
     41 H41       -11.4022    1.2758   51.3729 H       1  ZINC000481838178    0.1300
     42 H42        -3.2660    0.5636   48.1212 H       1  ZINC000481838178    0.0800
     43 H43        -4.7395    1.5829   48.0328 H       1  ZINC000481838178    0.0800
     44 H44        -1.9661    1.1427   46.0329 H       1  ZINC000481838178    0.0700
     45 H45        -3.4639    1.8548   45.3711 H       1  ZINC000481838178    0.0700
     46 H46        -1.4248    2.8129   44.2816 H       1  ZINC000481838178    0.0600
     47 H47        -2.3557    4.0460   45.1545 H       1  ZINC000481838178    0.0600
     48 H48         0.1836    2.6641   46.0904 H       1  ZINC000481838178    0.0600
     49 H49         0.0038    4.3642   45.6143 H       1  ZINC000481838178    0.0700
     50 H50         0.0499    4.0783   48.1031 H       1  ZINC000481838178    0.0700
     51 H51        -1.5004    4.7641   47.5423 H       1  ZINC000481838178    0.0700
     52 H52        -2.3016    3.9139   49.7846 H       1  ZINC000481838178    0.0700
     53 H53        -1.4115    2.4390   50.2646 H       1  ZINC000481838178    0.0700
@<TRIPOS>BOND
     1     1     2    2
     2     2     3    1
     3     2    21   am
     4     3     4    1
     5     3    32    1
     6     3    33    1
     7     4     5    1
     8     5    14    1
     9     5     6    2
    10     6     7    1
    11     7     8    2
    12     8     9    1
    13     8    14    1
    14     9    13    1
    15     9    10    2
    16    10    11    1
    17    10    34    1
    18    11    12    2
    19    11    35    1
    20    12    13    1
    21    12    36    1
    22    14    15    1
    23    15    20   ar
    24    15    16   ar
    25    16    17   ar
    26    16    37    1
    27    17    18   ar
    28    17    38    1
    29    18    19   ar
    30    18    39    1
    31    19    20   ar
    32    19    40    1
    33    20    41    1
    34    21    31    1
    35    21    22    1
    36    22    23    1
    37    22    42    1
    38    22    43    1
    39    23    24    1
    40    23    29    1
    41    23    25    1
    42    25    26    1
    43    25    44    1
    44    25    45    1
    45    26    27    1
    46    26    46    1
    47    26    47    1
    48    27    28    1
    49    27    48    1
    50    27    49    1
    51    28    29    1
    52    28    50    1
    53    28    51    1
    54    29    30    1
    55    29    31    1
    56    31    52    1
    57    31    53    1
@<TRIPOS>SUBSTRUCTURE
     1 ZINC000481838178        1 TEMP              0 ****  ****    0 ROOT


##########                                Name:    ZINC000464139057
##########                DOCK_Rotatable_Bonds:                   9
##########                         Heavy_Atoms:                  30
##########                    Molecular_Weight:              413.56
##########                DOCK_Rotatable_Bonds:                   9
##########                       Formal_Charge:         2.38419e-07
##########                     HBond_Acceptors:                   6
##########                        HBond_Donors:                   2
##########                         Heavy_Atoms:                  30
##########                          Grid_Score:          -36.448296
##########                     Grid_vdw_energy:          -32.739201
##########                      Grid_es_energy:           -3.709095
##########           Internal_energy_repulsive:           12.188687

@<TRIPOS>MOLECULE
ZINC000464139057
 65 67 1 0 0
SMALL
USER_CHARGES


@<TRIPOS>ATOM
      1 C1        -11.4275   -4.4737   57.6540 C.3     1  ZINC000464139057   -0.1800
      2 C2        -12.6487   -3.6087   57.3360 C.3     1  ZINC000464139057    0.0700
      3 H3        -13.5249   -4.0166   57.8401 H       1  ZINC000464139057    0.1200
      4 C4        -12.4009   -2.1753   57.8196 C.3     1  ZINC000464139057    0.0800
      5 N5        -11.3345   -1.5851   56.9950 N.am    1  ZINC000464139057   -0.6100
      6 C6        -10.2719   -0.9815   57.5631 C.2     1  ZINC000464139057    0.5600
      7 O7         -9.4013   -0.5000   56.8650 O.2     1  ZINC000464139057   -0.5300
      8 C8        -10.1651   -0.9051   59.0358 C.ar    1  ZINC000464139057   -0.1200
      9 C9        -10.7427    0.1617   59.7261 C.ar    1  ZINC000464139057   -0.0900
     10 C10       -10.6399    0.2268   61.1002 C.ar    1  ZINC000464139057   -0.1000
     11 C11        -9.9655   -0.7622   61.7941 C.ar    1  ZINC000464139057   -0.0900
     12 C12        -9.8567   -0.6843   63.2952 C.3     1  ZINC000464139057    0.1800
     13 N13        -9.1175    0.5239   63.6691 N.am    1  ZINC000464139057   -0.7400
     14 C14        -8.7202    0.7031   64.9445 C.2     1  ZINC000464139057    0.7000
     15 O15        -8.9739   -0.1387   65.7843 O.2     1  ZINC000464139057   -0.5900
     16 N16        -8.0414    1.8154   65.2888 N.am    1  ZINC000464139057   -0.7500
     17 C17        -7.6111    2.0110   66.6755 C.3     1  ZINC000464139057    0.1400
     18 C18        -6.0923    1.8490   66.7658 C.3     1  ZINC000464139057   -0.0900
     19 C19        -5.4234    3.1185   66.3058 C.2     1  ZINC000464139057   -0.1200
     20 C20        -5.1837    3.3004   65.0460 C.2     1  ZINC000464139057   -0.1500
     21 C21        -4.5124    4.5711   64.5705 C.3     1  ZINC000464139057   -0.0900
     22 C22        -5.5093    5.7256   64.6928 C.3     1  ZINC000464139057   -0.1100
     23 C23        -5.4779    6.3176   66.0908 C.3     1  ZINC000464139057   -0.1200
     24 C24        -5.9803    5.3691   67.1650 C.3     1  ZINC000464139057   -0.1100
     25 C25        -5.0408    4.1772   67.3180 C.3     1  ZINC000464139057   -0.0800
     26 C26        -9.3910   -1.8226   61.1160 C.ar    1  ZINC000464139057   -0.1000
     27 C27        -9.4912   -1.9024   59.7424 C.ar    1  ZINC000464139057   -0.0700
     28 C28       -11.4627   -1.6738   55.5317 C.3     1  ZINC000464139057    0.0700
     29 C29       -11.7562   -3.1316   55.1596 C.3     1  ZINC000464139057    0.0700
     30 H30       -10.8829   -3.7461   55.3782 H       1  ZINC000464139057    0.0700
     31 C31       -12.0844   -3.2222   53.6679 C.3     1  ZINC000464139057   -0.1500
     32 O32       -12.8718   -3.5982   55.9240 O.3     1  ZINC000464139057   -0.3700
     33 H33       -10.5516   -4.0652   57.1497 H       1  ZINC000464139057    0.0600
     34 H34       -11.2569   -4.4799   58.7306 H       1  ZINC000464139057    0.0700
     35 H35       -11.6037   -5.4923   57.3083 H       1  ZINC000464139057    0.0700
     36 H36       -13.3138   -1.5891   57.7139 H       1  ZINC000464139057    0.0800
     37 H37       -12.0917   -2.1887   58.8648 H       1  ZINC000464139057    0.1000
     38 H38       -11.2687    0.9347   59.1855 H       1  ZINC000464139057    0.1300
     39 H39       -11.0864    1.0517   61.6355 H       1  ZINC000464139057    0.1300
     40 H40       -10.8554   -0.6485   63.7304 H       1  ZINC000464139057    0.0800
     41 H41        -9.3295   -1.5626   63.6674 H       1  ZINC000464139057    0.0800
     42 H42        -8.9139    1.1950   62.9989 H       1  ZINC000464139057    0.4000
     43 H43        -7.8379    2.4864   64.6186 H       1  ZINC000464139057    0.4000
     44 H44        -7.8897    3.0120   67.0047 H       1  ZINC000464139057    0.0700
     45 H45        -8.0940    1.2710   67.3137 H       1  ZINC000464139057    0.0700
     46 H46        -5.8097    1.6429   67.7983 H       1  ZINC000464139057    0.0700
     47 H47        -5.7768    1.0213   66.1307 H       1  ZINC000464139057    0.0800
     48 H48        -5.4642    2.5411   64.3309 H       1  ZINC000464139057    0.1100
     49 H49        -3.6377    4.7758   65.1879 H       1  ZINC000464139057    0.0700
     50 H50        -4.2100    4.4575   63.5294 H       1  ZINC000464139057    0.0700
     51 H51        -5.2525    6.4996   63.9696 H       1  ZINC000464139057    0.0600
     52 H52        -6.5131    5.3569   64.4817 H       1  ZINC000464139057    0.0600
     53 H53        -4.4519    6.5997   66.3270 H       1  ZINC000464139057    0.0600
     54 H54        -6.0950    7.2161   66.1028 H       1  ZINC000464139057    0.0600
     55 H55        -6.0421    5.9020   68.1138 H       1  ZINC000464139057    0.0600
     56 H56        -6.9721    5.0095   66.8909 H       1  ZINC000464139057    0.0600
     57 H57        -5.1288    3.7687   68.3247 H       1  ZINC000464139057    0.0700
     58 H58        -4.0138    4.4952   67.1380 H       1  ZINC000464139057    0.0700
     59 H59        -8.8662   -2.5915   61.6636 H       1  ZINC000464139057    0.1300
     60 H60        -9.0425   -2.7308   59.2143 H       1  ZINC000464139057    0.1300
     61 H61       -12.2811   -1.0371   55.1956 H       1  ZINC000464139057    0.0800
     62 H62       -10.5322   -1.3552   55.0618 H       1  ZINC000464139057    0.1000
     63 H63       -11.2351   -2.8631   53.0867 H       1  ZINC000464139057    0.0800
     64 H64       -12.2930   -4.2589   53.4041 H       1  ZINC000464139057    0.0700
     65 H65       -12.9588   -2.6089   53.4504 H       1  ZINC000464139057    0.0700
@<TRIPOS>BOND
     1     1     2    1
     2     1    33    1
     3     1    34    1
     4     1    35    1
     5     2     3    1
     6     2    32    1
     7     2     4    1
     8     4     5    1
     9     4    36    1
    10     4    37    1
    11     5     6   am
    12     5    28    1
    13     6     7    2
    14     6     8    1
    15     8    27   ar
    16     8     9   ar
    17     9    10   ar
    18     9    38    1
    19    10    11   ar
    20    10    39    1
    21    11    12    1
    22    11    26   ar
    23    12    13    1
    24    12    40    1
    25    12    41    1
    26    13    14   am
    27    13    42    1
    28    14    15    2
    29    14    16   am
    30    16    17    1
    31    16    43    1
    32    17    18    1
    33    17    44    1
    34    17    45    1
    35    18    19    1
    36    18    46    1
    37    18    47    1
    38    19    25    1
    39    19    20    2
    40    20    21    1
    41    20    48    1
    42    21    22    1
    43    21    49    1
    44    21    50    1
    45    22    23    1
    46    22    51    1
    47    22    52    1
    48    23    24    1
    49    23    53    1
    50    23    54    1
    51    24    25    1
    52    24    55    1
    53    24    56    1
    54    25    57    1
    55    25    58    1
    56    26    27   ar
    57    26    59    1
    58    27    60    1
    59    28    29    1
    60    28    61    1
    61    28    62    1
    62    29    30    1
    63    29    31    1
    64    29    32    1
    65    31    63    1
    66    31    64    1
    67    31    65    1
@<TRIPOS>SUBSTRUCTURE
     1 ZINC000464139057        1 TEMP              0 ****  ****    0 ROOT


##########                                Name:    ZINC000471198073
##########                DOCK_Rotatable_Bonds:                  12
##########                         Heavy_Atoms:                  30
##########                    Molecular_Weight:             409.528
##########                DOCK_Rotatable_Bonds:                  12
##########                       Formal_Charge:          -0.0399998
##########                     HBond_Acceptors:                   6
##########                        HBond_Donors:                   3
##########                         Heavy_Atoms:                  30
##########                          Grid_Score:          -36.445950
##########                     Grid_vdw_energy:          -33.738602
##########                      Grid_es_energy:           -2.707348
##########           Internal_energy_repulsive:           21.622694

@<TRIPOS>MOLECULE
ZINC000471198073
 61 62 1 0 0
SMALL
USER_CHARGES


@<TRIPOS>ATOM
      1 C1        -10.8254    2.4478   64.2768 C.3     1  ZINC000471198073   -0.1400
      2 C2        -11.6471    1.1586   64.3385 C.3     1  ZINC000471198073   -0.1100
      3 C3        -13.1306    1.5057   64.4789 C.3     1  ZINC000471198073   -0.1500
      4 C4        -11.4341    0.3661   63.0746 C.2     1  ZINC000471198073    0.5200
      5 O5        -12.2950   -0.3928   62.6823 O.2     1  ZINC000471198073   -0.5200
      6 N6        -10.2869    0.5007   62.3801 N.am    1  ZINC000471198073   -0.6700
      7 C7        -10.0891   -0.2352   61.2065 C.ar    1  ZINC000471198073    0.1600
      8 C8         -9.5886   -1.5293   61.2734 C.ar    1  ZINC000471198073   -0.1500
      9 C9         -9.3932   -2.2571   60.1150 C.ar    1  ZINC000471198073   -0.0800
     10 C10        -9.6947   -1.7010   58.8872 C.ar    1  ZINC000471198073   -0.1300
     11 C11       -10.1954   -0.4063   58.8132 C.ar    1  ZINC000471198073    0.1500
     12 N12       -10.4998    0.1560   57.5709 N.am    1  ZINC000471198073   -0.6400
     13 C13        -9.5360    0.7664   56.8532 C.2     1  ZINC000471198073    0.5100
     14 O14        -8.4037    0.8276   57.2859 O.2     1  ZINC000471198073   -0.5000
     15 C15        -9.8614    1.3676   55.5252 C.2     1  ZINC000471198073    0.5100
     16 O16       -11.0181    1.5653   55.2156 O.2     1  ZINC000471198073   -0.5100
     17 N17        -8.8704    1.6903   54.6706 N.am    1  ZINC000471198073   -0.7000
     18 C18        -9.1896    2.2784   53.3674 C.3     1  ZINC000471198073    0.1200
     19 C19        -7.8931    2.5898   52.6171 C.3     1  ZINC000471198073   -0.0900
     20 H20        -7.1268    2.8983   53.3283 H       1  ZINC000471198073    0.0800
     21 C21        -7.4228    1.3398   51.8708 C.3     1  ZINC000471198073   -0.0800
     22 C22        -6.0311    1.5663   51.3387 C.ar    1  ZINC000471198073   -0.0800
     23 C23        -5.7290    1.2359   50.0308 C.ar    1  ZINC000471198073   -0.1200
     24 C24        -4.4525    1.4436   49.5427 C.ar    1  ZINC000471198073   -0.1200
     25 C25        -3.4782    1.9820   50.3624 C.ar    1  ZINC000471198073   -0.1200
     26 C26        -3.7806    2.3132   51.6700 C.ar    1  ZINC000471198073   -0.1200
     27 C27        -5.0582    2.1096   52.1568 C.ar    1  ZINC000471198073   -0.1200
     28 C28        -8.1426    3.7185   51.6148 C.3     1  ZINC000471198073   -0.1000
     29 C29        -9.5069    3.5194   50.9516 C.3     1  ZINC000471198073   -0.1600
     30 C30        -8.1218    5.0630   52.3449 C.3     1  ZINC000471198073   -0.1700
     31 C31       -10.3980    0.3249   59.9753 C.ar    1  ZINC000471198073   -0.1400
     32 H32       -10.9795    3.0210   65.1909 H       1  ZINC000471198073    0.0700
     33 H33        -9.7685    2.2005   64.1769 H       1  ZINC000471198073    0.0600
     34 H34       -11.1427    3.0401   63.4187 H       1  ZINC000471198073    0.0600
     35 H35       -11.3298    0.5663   65.1967 H       1  ZINC000471198073    0.1000
     36 H36       -13.4480    2.0981   63.6207 H       1  ZINC000471198073    0.0600
     37 H37       -13.7161    0.5873   64.5228 H       1  ZINC000471198073    0.0600
     38 H38       -13.2848    2.0790   65.3930 H       1  ZINC000471198073    0.0700
     39 H39        -9.5984    1.1075   62.6939 H       1  ZINC000471198073    0.4100
     40 H40        -9.3516   -1.9671   62.2318 H       1  ZINC000471198073    0.1300
     41 H41        -9.0037   -3.2629   60.1698 H       1  ZINC000471198073    0.1300
     42 H42        -9.5409   -2.2723   57.9837 H       1  ZINC000471198073    0.1400
     43 H43       -11.4047    0.1072   57.2250 H       1  ZINC000471198073    0.4200
     44 H44        -7.9458    1.5334   54.9186 H       1  ZINC000471198073    0.4200
     45 H45        -9.7850    1.5737   52.7869 H       1  ZINC000471198073    0.0700
     46 H46        -9.7553    3.1986   53.5127 H       1  ZINC000471198073    0.0800
     47 H47        -7.4169    0.4899   52.5533 H       1  ZINC000471198073    0.0800
     48 H48        -8.1001    1.1353   51.0416 H       1  ZINC000471198073    0.0800
     49 H49        -6.4901    0.8152   49.3905 H       1  ZINC000471198073    0.1200
     50 H50        -4.2162    1.1848   48.5212 H       1  ZINC000471198073    0.1200
     51 H51        -2.4807    2.1436   49.9813 H       1  ZINC000471198073    0.1200
     52 H52        -3.0194    2.7336   52.3104 H       1  ZINC000471198073    0.1200
     53 H53        -5.2946    2.3683   53.1784 H       1  ZINC000471198073    0.1200
     54 H54        -7.3631    3.7068   50.8529 H       1  ZINC000471198073    0.0800
     55 H55       -10.2934    3.6290   51.6983 H       1  ZINC000471198073    0.0600
     56 H56        -9.6427    4.2655   50.1687 H       1  ZINC000471198073    0.0600
     57 H57        -9.5567    2.5218   50.5153 H       1  ZINC000471198073    0.0600
     58 H58        -7.2007    5.1492   52.9212 H       1  ZINC000471198073    0.0600
     59 H59        -8.1721    5.8726   51.6169 H       1  ZINC000471198073    0.0600
     60 H60        -8.9779    5.1247   53.0168 H       1  ZINC000471198073    0.0700
     61 H61       -10.7869    1.3310   59.9206 H       1  ZINC000471198073    0.1400
@<TRIPOS>BOND
     1     1     2    1
     2     1    32    1
     3     1    33    1
     4     1    34    1
     5     2     3    1
     6     2     4    1
     7     2    35    1
     8     3    36    1
     9     3    37    1
    10     3    38    1
    11     4     5    2
    12     4     6   am
    13     6     7    1
    14     6    39    1
    15     7    31   ar
    16     7     8   ar
    17     8     9   ar
    18     8    40    1
    19     9    10   ar
    20     9    41    1
    21    10    11   ar
    22    10    42    1
    23    11    12    1
    24    11    31   ar
    25    12    13   am
    26    12    43    1
    27    13    14    2
    28    13    15    1
    29    15    16    2
    30    15    17   am
    31    17    18    1
    32    17    44    1
    33    18    19    1
    34    18    45    1
    35    18    46    1
    36    19    20    1
    37    19    21    1
    38    19    28    1
    39    21    22    1
    40    21    47    1
    41    21    48    1
    42    22    27   ar
    43    22    23   ar
    44    23    24   ar
    45    23    49    1
    46    24    25   ar
    47    24    50    1
    48    25    26   ar
    49    25    51    1
    50    26    27   ar
    51    26    52    1
    52    27    53    1
    53    28    29    1
    54    28    30    1
    55    28    54    1
    56    29    55    1
    57    29    56    1
    58    29    57    1
    59    30    58    1
    60    30    59    1
    61    30    60    1
    62    31    61    1
@<TRIPOS>SUBSTRUCTURE
     1 ZINC000471198073        1 TEMP              0 ****  ****    0 ROOT


##########                                Name:    ZINC001004075025
##########                DOCK_Rotatable_Bonds:                   8
##########                         Heavy_Atoms:                  25
##########                    Molecular_Weight:              349.43
##########                DOCK_Rotatable_Bonds:                   8
##########                       Formal_Charge:         -0.00999999
##########                     HBond_Acceptors:                   7
##########                        HBond_Donors:                   1
##########                         Heavy_Atoms:                  25
##########                          Grid_Score:          -36.429832
##########                     Grid_vdw_energy:          -35.353615
##########                      Grid_es_energy:           -1.076218
##########           Internal_energy_repulsive:            7.597102

@<TRIPOS>MOLECULE
ZINC001004075025
 52 54 1 0 0
SMALL
USER_CHARGES


@<TRIPOS>ATOM
      1 C1         -9.1939   -0.8338   67.4270 C.3     1  ZINC001004075025   -0.1500
      2 C2         -9.0609    0.5811   66.8601 C.3     1  ZINC001004075025   -0.1200
      3 C3        -10.1467    0.8127   65.8074 C.3     1  ZINC001004075025    0.0800
      4 H4        -11.1350    0.6902   66.2506 H       1  ZINC001004075025    0.0700
      5 C5        -10.0054    2.2274   65.1913 C.3     1  ZINC001004075025   -0.1500
      6 C6        -10.6890    2.0182   63.8125 C.3     1  ZINC001004075025   -0.1400
      7 C7        -10.3105    0.5595   63.4771 C.3     1  ZINC001004075025    0.0700
      8 H8         -9.4523    0.5453   62.8053 H       1  ZINC001004075025    0.1100
      9 C9        -11.4794   -0.1356   62.8280 C.2     1  ZINC001004075025    0.5300
     10 O10       -12.6122    0.1533   63.1506 O.2     1  ZINC001004075025   -0.5200
     11 N11       -11.2660   -1.0786   61.8890 N.am    1  ZINC001004075025   -0.6500
     12 C12       -10.0906   -1.6937   61.2540 C.3     1  ZINC001004075025    0.1100
     13 C13       -10.9653   -1.9638   60.0219 C.3     1  ZINC001004075025   -0.1400
     14 C14       -10.7283   -3.3283   59.3714 C.3     1  ZINC001004075025    0.1300
     15 N15       -11.8329   -3.6323   58.4583 N.am    1  ZINC001004075025   -0.7200
     16 C16       -11.7043   -4.6202   57.5504 C.2     1  ZINC001004075025    0.6000
     17 O17       -10.6720   -5.2600   57.4902 O.2     1  ZINC001004075025   -0.5300
     18 C18       -12.8151   -4.9249   56.6306 C.2     1  ZINC001004075025   -0.2700
     19 C19       -12.9474   -4.5862   55.3061 C.2     1  ZINC001004075025    0.0700
     20 C20       -11.9650   -3.8066   54.4705 C.3     1  ZINC001004075025   -0.0300
     21 C21       -12.0262   -4.2961   53.0222 C.3     1  ZINC001004075025   -0.1500
     22 C22       -12.3196   -2.3191   54.5214 C.3     1  ZINC001004075025   -0.1500
     23 O23       -14.1194   -5.0848   54.9062 O.3     1  ZINC001004075025    0.1000
     24 N24       -14.7101   -5.6686   55.7814 N.2     1  ZINC001004075025   -0.3500
     25 C25       -14.0524   -5.6724   56.9029 C.2     1  ZINC001004075025    0.0200
     26 C26       -12.1056   -1.9499   61.0532 C.3     1  ZINC001004075025    0.1100
     27 O27        -9.9773   -0.0961   64.7080 O.3     1  ZINC001004075025   -0.3400
     28 H28        -8.4203   -0.9988   68.1770 H       1  ZINC001004075025    0.0600
     29 H29       -10.1756   -0.9506   67.8858 H       1  ZINC001004075025    0.0500
     30 H30        -9.0802   -1.5598   66.6220 H       1  ZINC001004075025    0.0600
     31 H31        -9.1746    1.3072   67.6651 H       1  ZINC001004075025    0.0800
     32 H32        -8.0791    0.6980   66.4013 H       1  ZINC001004075025    0.0700
     33 H33       -10.5384    2.9697   65.7854 H       1  ZINC001004075025    0.0900
     34 H34        -8.9571    2.5011   65.0724 H       1  ZINC001004075025    0.0900
     35 H35       -11.7702    2.1293   63.8948 H       1  ZINC001004075025    0.0800
     36 H36       -10.2828    2.7048   63.0699 H       1  ZINC001004075025    0.0900
     37 H37        -9.2807   -0.9891   61.0654 H       1  ZINC001004075025    0.0900
     38 H38        -9.7525   -2.6015   61.7538 H       1  ZINC001004075025    0.0900
     39 H39       -10.9926   -1.1435   59.3047 H       1  ZINC001004075025    0.1100
     40 H40        -9.7916   -3.3074   58.8142 H       1  ZINC001004075025    0.0800
     41 H41       -10.6744   -4.0949   60.1443 H       1  ZINC001004075025    0.0800
     42 H42       -12.6569   -3.1227   58.5072 H       1  ZINC001004075025    0.4000
     43 H43       -10.9583   -3.9538   54.8615 H       1  ZINC001004075025    0.1300
     44 H44       -13.0329   -4.1490   52.6311 H       1  ZINC001004075025    0.0600
     45 H45       -11.3156   -3.7323   52.4178 H       1  ZINC001004075025    0.0700
     46 H46       -11.7736   -5.3558   52.9858 H       1  ZINC001004075025    0.0600
     47 H47       -13.3263   -2.1720   54.1304 H       1  ZINC001004075025    0.0600
     48 H48       -12.2760   -1.9704   55.5533 H       1  ZINC001004075025    0.0600
     49 H49       -11.6090   -1.7553   53.9171 H       1  ZINC001004075025    0.0700
     50 H50       -14.3535   -6.1226   57.8373 H       1  ZINC001004075025    0.2000
     51 H51       -12.3011   -2.9259   61.4973 H       1  ZINC001004075025    0.0900
     52 H52       -13.0108   -1.4612   60.6928 H       1  ZINC001004075025    0.0800
@<TRIPOS>BOND
     1     1     2    1
     2     1    28    1
     3     1    29    1
     4     1    30    1
     5     2     3    1
     6     2    31    1
     7     2    32    1
     8     3     4    1
     9     3    27    1
    10     3     5    1
    11     5     6    1
    12     5    33    1
    13     5    34    1
    14     6     7    1
    15     6    35    1
    16     6    36    1
    17     7     8    1
    18     7     9    1
    19     7    27    1
    20     9    10    2
    21     9    11   am
    22    11    26    1
    23    11    12    1
    24    12    13    1
    25    12    37    1
    26    12    38    1
    27    13    14    1
    28    13    26    1
    29    13    39    1
    30    14    15    1
    31    14    40    1
    32    14    41    1
    33    15    16   am
    34    15    42    1
    35    16    17    2
    36    16    18    1
    37    18    25    1
    38    18    19    2
    39    19    20    1
    40    19    23    1
    41    20    21    1
    42    20    22    1
    43    20    43    1
    44    21    44    1
    45    21    45    1
    46    21    46    1
    47    22    47    1
    48    22    48    1
    49    22    49    1
    50    23    24    1
    51    24    25    2
    52    25    50    1
    53    26    51    1
    54    26    52    1
@<TRIPOS>SUBSTRUCTURE
     1 ZINC001004075025        1 TEMP              0 ****  ****    0 ROOT


##########                                Name:    ZINC000460972051
##########                DOCK_Rotatable_Bonds:                  10
##########                         Heavy_Atoms:                  29
##########                    Molecular_Weight:             417.572
##########                DOCK_Rotatable_Bonds:                  10
##########                       Formal_Charge:         3.31551e-07
##########                     HBond_Acceptors:                   7
##########                        HBond_Donors:                   2
##########                         Heavy_Atoms:                  29
##########                          Grid_Score:          -36.424175
##########                     Grid_vdw_energy:          -36.278496
##########                      Grid_es_energy:           -0.145679
##########           Internal_energy_repulsive:           28.545237

@<TRIPOS>MOLECULE
ZINC000460972051
 60 61 1 0 0
SMALL
USER_CHARGES


@<TRIPOS>ATOM
      1 C1        -14.1077    0.9673   48.8465 C.3     1  ZINC000460972051   -0.1800
      2 C2        -15.3325    0.3066   49.4824 C.3     1  ZINC000460972051    0.1000
      3 N3        -14.9193   -0.9062   50.1928 N.am    1  ZINC000460972051   -0.6200
      4 C4        -14.2444   -0.8094   51.3553 C.2     1  ZINC000460972051    0.7100
      5 O5        -13.9771    0.2846   51.8138 O.2     1  ZINC000460972051   -0.5800
      6 N6        -13.8658   -1.9252   52.0096 N.am    1  ZINC000460972051   -0.7400
      7 C7        -13.1336   -1.8199   53.2742 C.3     1  ZINC000460972051    0.2000
      8 H8        -13.6524   -1.1280   53.9379 H       1  ZINC000460972051    0.1100
      9 C9        -13.0554   -3.1979   53.9344 C.3     1  ZINC000460972051    0.1100
     10 N10       -14.2327   -3.4007   54.7824 N.am    1  ZINC000460972051   -1.1200
     11 S11       -14.2266   -4.5871   55.9376 S.o2    1  ZINC000460972051    2.7000
     12 O12       -15.4286   -4.4313   56.6793 O.2     1  ZINC000460972051   -0.9500
     13 O13       -13.8744   -5.7927   55.2729 O.2     1  ZINC000460972051   -0.9600
     14 C14       -12.9066   -4.2273   57.0479 C.ar    1  ZINC000460972051   -0.6900
     15 C15       -11.9530   -5.1892   57.3226 C.ar    1  ZINC000460972051   -0.0100
     16 C16       -10.9172   -4.9068   58.1938 C.ar    1  ZINC000460972051   -0.1500
     17 C17       -10.8352   -3.6625   58.7897 C.ar    1  ZINC000460972051   -0.0200
     18 C18        -9.7065   -3.3548   59.7397 C.3     1  ZINC000460972051   -0.1300
     19 C19       -11.7883   -2.6997   58.5138 C.ar    1  ZINC000460972051   -0.1500
     20 C20       -12.8216   -2.9808   57.6399 C.ar    1  ZINC000460972051    0.0300
     21 C21       -13.8606   -1.9314   57.3392 C.3     1  ZINC000460972051   -0.1700
     22 C22       -11.7406   -1.3109   53.0073 C.ar    1  ZINC000460972051   -0.1000
     23 C23       -10.9038   -2.0033   52.1521 C.ar    1  ZINC000460972051   -0.1000
     24 C24        -9.6259   -1.5364   51.9073 C.ar    1  ZINC000460972051   -0.1200
     25 C25        -9.1849   -0.3769   52.5172 C.ar    1  ZINC000460972051   -0.1200
     26 C26       -10.0221    0.3160   53.3717 C.ar    1  ZINC000460972051   -0.1200
     27 C27       -11.3014   -0.1486   53.6132 C.ar    1  ZINC000460972051   -0.1000
     28 C28       -15.2398   -2.2243   49.6394 C.3     1  ZINC000460972051    0.1500
     29 C29       -16.7504   -2.4554   49.7145 C.3     1  ZINC000460972051   -0.1600
     30 C30       -14.7860   -2.2888   48.1796 C.3     1  ZINC000460972051   -0.1600
     31 H31       -14.4151    1.8697   48.3181 H       1  ZINC000460972051    0.0700
     32 H32       -13.3908    1.2286   49.6249 H       1  ZINC000460972051    0.0600
     33 H33       -13.6449    0.2745   48.1438 H       1  ZINC000460972051    0.0700
     34 H34       -15.7954    0.9994   50.1852 H       1  ZINC000460972051    0.0700
     35 H35       -16.0495    0.0453   48.7040 H       1  ZINC000460972051    0.0900
     36 H36       -14.0780   -2.7979   51.6432 H       1  ZINC000460972051    0.4000
     37 H37       -13.0253   -3.9686   53.1642 H       1  ZINC000460972051    0.0900
     38 H38       -12.1538   -3.2580   54.5440 H       1  ZINC000460972051    0.0900
     39 H39       -15.0157   -2.8399   54.6672 H       1  ZINC000460972051    0.4200
     40 H40       -12.0171   -6.1616   56.8571 H       1  ZINC000460972051    0.1400
     41 H41       -10.1725   -5.6587   58.4091 H       1  ZINC000460972051    0.1300
     42 H42        -8.8653   -2.9419   59.1829 H       1  ZINC000460972051    0.0800
     43 H43       -10.0428   -2.6297   60.4807 H       1  ZINC000460972051    0.0700
     44 H44        -9.3951   -4.2703   60.2425 H       1  ZINC000460972051    0.0700
     45 H45       -11.7241   -1.7273   58.9791 H       1  ZINC000460972051    0.1300
     46 H46       -13.5945   -1.4097   56.4199 H       1  ZINC000460972051    0.0900
     47 H47       -14.8336   -2.4076   57.2182 H       1  ZINC000460972051    0.1000
     48 H48       -13.9051   -1.2179   58.1620 H       1  ZINC000460972051    0.0900
     49 H49       -11.2482   -2.9091   51.6756 H       1  ZINC000460972051    0.1200
     50 H50        -8.9719   -2.0778   51.2398 H       1  ZINC000460972051    0.1200
     51 H51        -8.1863   -0.0125   52.3265 H       1  ZINC000460972051    0.1200
     52 H52        -9.6775    1.2217   53.8485 H       1  ZINC000460972051    0.1200
     53 H53       -11.9554    0.3927   54.2807 H       1  ZINC000460972051    0.1200
     54 H54       -14.7254   -2.9945   50.2141 H       1  ZINC000460972051    0.1000
     55 H55       -17.0738   -2.4095   50.7544 H       1  ZINC000460972051    0.0600
     56 H56       -17.2649   -1.6853   49.1399 H       1  ZINC000460972051    0.0600
     57 H57       -16.9889   -3.4361   49.3028 H       1  ZINC000460972051    0.0700
     58 H58       -13.7099   -2.1241   48.1261 H       1  ZINC000460972051    0.0600
     59 H59       -15.0244   -3.2694   47.7680 H       1  ZINC000460972051    0.0700
     60 H60       -15.3005   -1.5186   47.6049 H       1  ZINC000460972051    0.0600
@<TRIPOS>BOND
     1     1     2    1
     2     1    31    1
     3     1    32    1
     4     1    33    1
     5     2     3    1
     6     2    34    1
     7     2    35    1
     8     3     4   am
     9     3    28    1
    10     4     5    2
    11     4     6   am
    12     6     7    1
    13     6    36    1
    14     7     8    1
    15     7     9    1
    16     7    22    1
    17     9    10    1
    18     9    37    1
    19     9    38    1
    20    10    11   am
    21    10    39    1
    22    11    12    2
    23    11    13    2
    24    11    14    1
    25    14    20   ar
    26    14    15   ar
    27    15    16   ar
    28    15    40    1
    29    16    17   ar
    30    16    41    1
    31    17    18    1
    32    17    19   ar
    33    18    42    1
    34    18    43    1
    35    18    44    1
    36    19    20   ar
    37    19    45    1
    38    20    21    1
    39    21    46    1
    40    21    47    1
    41    21    48    1
    42    22    27   ar
    43    22    23   ar
    44    23    24   ar
    45    23    49    1
    46    24    25   ar
    47    24    50    1
    48    25    26   ar
    49    25    51    1
    50    26    27   ar
    51    26    52    1
    52    27    53    1
    53    28    29    1
    54    28    30    1
    55    28    54    1
    56    29    55    1
    57    29    56    1
    58    29    57    1
    59    30    58    1
    60    30    59    1
    61    30    60    1
@<TRIPOS>SUBSTRUCTURE
     1 ZINC000460972051        1 TEMP              0 ****  ****    0 ROOT


##########                                Name:     oleObject42.pdb
##########                DOCK_Rotatable_Bonds:                   9
##########                         Heavy_Atoms:                  36
##########                    Molecular_Weight:             527.493
##########                DOCK_Rotatable_Bonds:                   9
##########                       Formal_Charge:         9.99384e-05
##########                     HBond_Acceptors:                   8
##########                        HBond_Donors:                   0
##########                         Heavy_Atoms:                  36
##########                          Grid_Score:          -36.400620
##########                     Grid_vdw_energy:          -35.932251
##########                      Grid_es_energy:           -0.468368
##########           Internal_energy_repulsive:           24.071808

@<TRIPOS>MOLECULE
oleObject42.pdb
 68 71 1 0 0
SMALL
NO_CHARGES


@<TRIPOS>ATOM
      1 C          -8.7550   -0.4715   52.5977 C.ar    1  UNL        -0.0435
      2 C          -9.2540    0.5377   53.4340 C.ar    1  UNL        -0.0559
      3 C         -10.6432    0.6353   53.6385 C.ar    1  UNL        -0.0272
      4 C         -11.4881   -0.2972   52.9853 C.ar    1  UNL         0.0699
      5 N         -10.9930   -1.2664   52.1805 N.ar    1  UNL        -0.2586
      6 C          -9.6630   -1.3520   51.9915 C.ar    1  UNL         0.0272
      7 C         -13.0163   -0.2610   53.1568 C.3     1  UNL         0.1101
      8 C         -13.7755   -0.9261   51.9923 C.ar    1  UNL         0.0699
      9 C         -13.9492   -0.2634   50.7510 C.ar    1  UNL        -0.0272
     10 C         -14.6623   -0.9235   49.7325 C.ar    1  UNL        -0.0559
     11 C         -15.1753   -2.2054   49.9775 C.ar    1  UNL        -0.0435
     12 C         -14.9599   -2.7859   51.2359 C.ar    1  UNL         0.0272
     13 N         -14.2807   -2.1621   52.2163 N.ar    1  UNL        -0.2586
     14 C         -13.3906    1.1309   50.4884 C.3     1  UNL        -0.0379
     15 N         -13.4552   -0.7053   54.5089 N.am    1  UNL        -0.2902
     16 C         -12.8174   -1.7246   55.2170 C.2     1  UNL         0.2180
     17 O         -12.0352   -2.4705   54.6509 O.2     1  UNL        -0.2772
     18 C         -13.3871   -2.0776   56.6128 C.3     1  UNL         0.0385
     19 C         -12.8520   -1.1144   57.6997 C.3     1  UNL        -0.0289
     20 C         -11.3829   -1.4095   58.0707 C.3     1  UNL        -0.0010
     21 N         -11.2013   -2.8182   58.4827 N.4     1  UNL        -0.3010
     22 C         -11.6540   -3.8019   57.4743 C.3     1  UNL        -0.0010
     23 C         -13.1125   -3.5484   57.0227 C.3     1  UNL        -0.0289
     24 C          -9.8678   -3.1112   59.0533 C.3     1  UNL         0.0222
     25 C          -9.7418   -2.7841   60.5581 C.3     1  UNL         0.0661
     26 O          -9.5487   -1.3666   60.6858 O.3     1  UNL        -0.3432
     27 C          -9.7785   -0.7710   61.9016 C.ar    1  UNL         0.0937
     28 C          -8.9927   -1.1454   63.0046 C.ar    1  UNL        -0.0288
     29 C          -9.2119   -0.5511   64.2584 C.ar    1  UNL        -0.0408
     30 C         -10.2201    0.4157   64.4085 C.ar    1  UNL         0.0422
     31 C         -11.0110    0.7884   63.3087 C.ar    1  UNL        -0.0221
     32 C         -10.7932    0.1953   62.0536 C.ar    1  UNL         0.0723
     33 CL        -11.7975    0.6742   60.6979 Cl      1  UNL        -0.0814
     34 CL        -10.4936    1.1562   65.9710 Cl      1  UNL        -0.0843
     35 C         -14.7157   -0.1257   55.0149 C.3     1  UNL         0.0038
     36 C         -11.1883    1.7293   54.5502 C.3     1  UNL        -0.0379
     37 H          -7.6876   -0.5704   52.4234 H       1  UNL         0.0639
     38 H          -8.5706    1.2311   53.9162 H       1  UNL         0.0627
     39 H          -9.3169   -2.1502   51.3360 H       1  UNL         0.0840
     40 H         -13.2828    0.7975   53.0994 H       1  UNL         0.0643
     41 H         -14.8163   -0.4523   48.7659 H       1  UNL         0.0627
     42 H         -15.7281   -2.7381   49.2094 H       1  UNL         0.0639
     43 H         -15.3416   -3.7795   51.4673 H       1  UNL         0.0840
     44 H         -13.8547    1.8736   51.1491 H       1  UNL         0.0280
     45 H         -13.5753    1.4517   49.4556 H       1  UNL         0.0280
     46 H         -12.3058    1.1614   50.6484 H       1  UNL         0.0280
     47 H         -14.4763   -1.9727   56.5792 H       1  UNL         0.0402
     48 H         -13.4691   -1.2163   58.6019 H       1  UNL         0.0288
     49 H         -12.9476   -0.0732   57.3696 H       1  UNL         0.0288
     50 H         -11.0853   -0.7407   58.8886 H       1  UNL         0.0431
     51 H         -10.7457   -1.1839   57.2061 H       1  UNL         0.0431
     52 H         -11.5877   -4.8157   57.8894 H       1  UNL         0.0431
     53 H         -10.9975   -3.7665   56.5970 H       1  UNL         0.0431
     54 H         -13.7783   -3.8076   57.8561 H       1  UNL         0.0288
     55 H         -13.3707   -4.2232   56.1965 H       1  UNL         0.0288
     56 H          -9.1062   -2.5402   58.5070 H       1  UNL         0.0455
     57 H          -9.6388   -4.1748   58.9081 H       1  UNL         0.0455
     58 H          -8.8868   -3.3188   60.9897 H       1  UNL         0.0586
     59 H         -10.6513   -3.0883   61.0905 H       1  UNL         0.0586
     60 H          -8.2152   -1.8945   62.8861 H       1  UNL         0.0652
     61 H          -8.6026   -0.8403   65.1101 H       1  UNL         0.0639
     62 H         -11.7916    1.5342   63.4290 H       1  UNL         0.0655
     63 H         -14.8499    0.8957   54.6373 H       1  UNL         0.0433
     64 H         -14.6976   -0.0884   56.1114 H       1  UNL         0.0433
     65 H         -15.5623   -0.7441   54.6914 H       1  UNL         0.0433
     66 H         -10.3805    2.3245   54.9938 H       1  UNL         0.0280
     67 H         -11.7694    1.3046   55.3778 H       1  UNL         0.0280
     68 H         -11.8353    2.4199   53.9960 H       1  UNL         0.0280
@<TRIPOS>BOND
     1     1     2   ar
     2     1     6   ar
     3     1    37    1
     4     2     3   ar
     5     2    38    1
     6     3     4   ar
     7     3    36    1
     8     4     5   ar
     9     4     7    1
    10     5     6   ar
    11     6    39    1
    12     7     8    1
    13     7    15    1
    14     7    40    1
    15     8     9   ar
    16     8    13   ar
    17     9    10   ar
    18     9    14    1
    19    10    11   ar
    20    10    41    1
    21    11    12   ar
    22    11    42    1
    23    12    13   ar
    24    12    43    1
    25    14    44    1
    26    14    45    1
    27    14    46    1
    28    15    16   am
    29    15    35    1
    30    16    17    2
    31    16    18    1
    32    18    19    1
    33    18    23    1
    34    18    47    1
    35    19    20    1
    36    19    48    1
    37    19    49    1
    38    20    21    1
    39    20    50    1
    40    20    51    1
    41    21    22    1
    42    21    24    1
    43    22    23    1
    44    22    52    1
    45    22    53    1
    46    23    54    1
    47    23    55    1
    48    24    25    1
    49    24    56    1
    50    24    57    1
    51    25    26    1
    52    25    58    1
    53    25    59    1
    54    26    27    1
    55    27    28   ar
    56    27    32   ar
    57    28    29   ar
    58    28    60    1
    59    29    30   ar
    60    29    61    1
    61    30    31   ar
    62    30    34    1
    63    31    32   ar
    64    31    62    1
    65    32    33    1
    66    35    63    1
    67    35    64    1
    68    35    65    1
    69    36    66    1
    70    36    67    1
    71    36    68    1
@<TRIPOS>SUBSTRUCTURE
     1 UNL         1 TEMP              0 ****  ****    0 ROOT


##########                                Name:    ZINC000457806032
##########                DOCK_Rotatable_Bonds:                   8
##########                         Heavy_Atoms:                  24
##########                    Molecular_Weight:             387.911
##########                DOCK_Rotatable_Bonds:                   8
##########                       Formal_Charge:        -1.49012e-07
##########                     HBond_Acceptors:                   9
##########                        HBond_Donors:                   2
##########                         Heavy_Atoms:                  24
##########                          Grid_Score:          -36.387836
##########                     Grid_vdw_energy:          -32.920135
##########                      Grid_es_energy:           -3.467700
##########           Internal_energy_repulsive:            7.108522

@<TRIPOS>MOLECULE
ZINC000457806032
 42 43 1 0 0
SMALL
USER_CHARGES


@<TRIPOS>ATOM
      1 C1         -4.2368    4.7901   64.1181 C.3     1  ZINC000457806032    0.0800
      2 N2         -3.6054    3.4689   64.1641 N.am    1  ZINC000457806032   -1.0100
      3 C3         -2.7107    3.0467   63.0836 C.3     1  ZINC000457806032    0.0900
      4 S4         -3.9030    2.4528   65.4374 S.o2    1  ZINC000457806032    2.7900
      5 O5         -3.2799    1.2163   65.1181 O.2     1  ZINC000457806032   -0.9700
      6 O6         -3.6089    3.1899   66.6161 O.2     1  ZINC000457806032   -0.9700
      7 N7         -5.5332    2.1624   65.4621 N.am    1  ZINC000457806032   -1.1300
      8 C8         -6.1060    1.2879   66.4884 C.3     1  ZINC000457806032    0.1100
      9 C9         -7.5612    1.6856   66.7431 C.3     1  ZINC000457806032    0.1100
     10 N10        -8.3224    1.5778   65.4961 N.am    1  ZINC000457806032   -0.7300
     11 C11        -8.7525    0.3733   65.0711 C.2     1  ZINC000457806032    0.5800
     12 O12        -8.5097   -0.6241   65.7236 O.2     1  ZINC000457806032   -0.5300
     13 C13        -9.5160    0.2647   63.8168 C.2     1  ZINC000457806032   -0.1500
     14 C14       -10.2885    1.2751   63.3286 C.2     1  ZINC000457806032   -0.2200
     15 S15       -11.0275    0.8090   61.8633 S.3     1  ZINC000457806032    0.2400
     16 C16       -10.2741   -0.7770   61.9211 C.2     1  ZINC000457806032   -0.1700
     17 C17       -10.4520   -1.8387   60.9069 C.ar    1  ZINC000457806032   -0.0100
     18 C18        -9.5037   -2.8548   60.7830 C.ar    1  ZINC000457806032   -0.0900
     19 C19        -9.6748   -3.8424   59.8351 C.ar    1  ZINC000457806032   -0.1000
     20 C20       -10.7847   -3.8263   59.0074 C.ar    1  ZINC000457806032   -0.0300
     21 Cl21      -10.9932   -5.0721   57.8166 Cl      1  ZINC000457806032   -0.0600
     22 C22       -11.7292   -2.8208   59.1261 C.ar    1  ZINC000457806032   -0.1000
     23 C23       -11.5716   -1.8312   60.0741 C.ar    1  ZINC000457806032   -0.1000
     24 C24        -9.5083   -0.8806   63.0189 C.2     1  ZINC000457806032   -0.0700
     25 H25        -5.1935    4.7178   63.6006 H       1  ZINC000457806032    0.0600
     26 H26        -4.3996    5.1506   65.1339 H       1  ZINC000457806032    0.0800
     27 H27        -3.5873    5.4850   63.5857 H       1  ZINC000457806032    0.0800
     28 H28        -1.6889    3.3420   63.3218 H       1  ZINC000457806032    0.0600
     29 H29        -2.7597    1.9634   62.9737 H       1  ZINC000457806032    0.0700
     30 H30        -3.0179    3.5207   62.1514 H       1  ZINC000457806032    0.0700
     31 H31        -6.1088    2.5714   64.7971 H       1  ZINC000457806032    0.4200
     32 H32        -6.0665    0.2533   66.1475 H       1  ZINC000457806032    0.0700
     33 H33        -5.5349    1.3883   67.4114 H       1  ZINC000457806032    0.0900
     34 H34        -7.9937    1.0214   67.4914 H       1  ZINC000457806032    0.0800
     35 H35        -7.5991    2.7133   67.1043 H       1  ZINC000457806032    0.0800
     36 H36        -8.5171    2.3733   64.9764 H       1  ZINC000457806032    0.4000
     37 H37       -10.4153    2.2370   63.8030 H       1  ZINC000457806032    0.1700
     38 H38        -8.6372   -2.8679   61.4276 H       1  ZINC000457806032    0.1400
     39 H39        -8.9416   -4.6293   59.7383 H       1  ZINC000457806032    0.1400
     40 H40       -12.5929   -2.8134   58.4777 H       1  ZINC000457806032    0.1400
     41 H41       -12.3091   -1.0475   60.1660 H       1  ZINC000457806032    0.1300
     42 H42        -8.9460   -1.7690   63.2656 H       1  ZINC000457806032    0.1600
@<TRIPOS>BOND
     1     1     2    1
     2     1    25    1
     3     1    26    1
     4     1    27    1
     5     2     3    1
     6     2     4   am
     7     3    28    1
     8     3    29    1
     9     3    30    1
    10     4     5    2
    11     4     6    2
    12     4     7   am
    13     7     8    1
    14     7    31    1
    15     8     9    1
    16     8    32    1
    17     8    33    1
    18     9    10    1
    19     9    34    1
    20     9    35    1
    21    10    11   am
    22    10    36    1
    23    11    12    2
    24    11    13    1
    25    13    24    1
    26    13    14    2
    27    14    15    1
    28    14    37    1
    29    15    16    1
    30    16    17    1
    31    16    24    2
    32    17    23   ar
    33    17    18   ar
    34    18    19   ar
    35    18    38    1
    36    19    20   ar
    37    19    39    1
    38    20    21    1
    39    20    22   ar
    40    22    23   ar
    41    22    40    1
    42    23    41    1
    43    24    42    1
@<TRIPOS>SUBSTRUCTURE
     1 ZINC000457806032        1 TEMP              0 ****  ****    0 ROOT


##########                                Name:    ZINC001362587626
##########                DOCK_Rotatable_Bonds:                   9
##########                         Heavy_Atoms:                  25
##########                    Molecular_Weight:             346.346
##########                DOCK_Rotatable_Bonds:                   9
##########                       Formal_Charge:        -4.02331e-07
##########                     HBond_Acceptors:                  10
##########                        HBond_Donors:                   2
##########                         Heavy_Atoms:                  25
##########                          Grid_Score:          -36.320866
##########                     Grid_vdw_energy:          -28.808266
##########                      Grid_es_energy:           -7.512600
##########           Internal_energy_repulsive:            5.629495

@<TRIPOS>MOLECULE
ZINC001362587626
 43 45 1 0 0
SMALL
USER_CHARGES


@<TRIPOS>ATOM
      1 C1        -11.1244    2.6992   64.0300 C.3     1  ZINC001362587626   -0.1600
      2 C2        -10.4710    1.3838   64.4589 C.3     1  ZINC001362587626    0.1300
      3 H3        -10.9437    1.0246   65.3730 H       1  ZINC001362587626    0.1200
      4 N4         -9.0431    1.6042   64.7016 N.am    1  ZINC001362587626   -0.7100
      5 C5         -8.3786    0.8190   65.5724 C.2     1  ZINC001362587626    0.5100
      6 O6         -8.9623   -0.0710   66.1540 O.2     1  ZINC001362587626   -0.5000
      7 C7         -6.9101    1.0468   65.8234 C.3     1  ZINC001362587626    0.1000
      8 N8         -6.7448    1.9843   66.9369 N.pl3   1  ZINC001362587626   -0.3100
      9 C9         -6.6702    3.3253   66.8485 C.2     1  ZINC001362587626    0.1600
     10 N10        -6.5247    3.7754   68.0709 N.2     1  ZINC001362587626   -0.3000
     11 N11        -6.5109    2.7637   68.8684 N.2     1  ZINC001362587626   -0.0700
     12 N12        -6.6492    1.6801   68.1870 N.2     1  ZINC001362587626   -0.0700
     13 C13       -10.6428    0.3586   63.3681 C.2     1  ZINC001362587626    0.5100
     14 O14       -11.5848   -0.4052   63.3965 O.2     1  ZINC001362587626   -0.5200
     15 N15        -9.7499    0.2901   62.3608 N.am    1  ZINC001362587626   -0.6600
     16 C16        -9.9097   -0.6631   61.3466 C.ar    1  ZINC001362587626    0.1000
     17 C17       -10.6109   -0.3389   60.1929 C.ar    1  ZINC001362587626   -0.1000
     18 C18       -10.7676   -1.2788   59.1934 C.ar    1  ZINC001362587626   -0.1900
     19 C19       -10.2251   -2.5468   59.3421 C.ar    1  ZINC001362587626    0.1200
     20 O20       -10.3802   -3.4720   58.3577 O.3     1  ZINC001362587626   -0.2800
     21 C21       -11.6701   -3.5619   57.7494 C.3     1  ZINC001362587626    0.0100
     22 C22       -11.7234   -2.9957   56.3178 C.3     1  ZINC001362587626    0.0200
     23 O23       -11.4220   -4.3410   55.8958 O.3     1  ZINC001362587626   -0.3700
     24 C24       -11.9570   -4.9284   57.0988 C.3     1  ZINC001362587626    0.0400
     25 C25        -9.5241   -2.8714   60.4943 C.ar    1  ZINC001362587626   -0.1300
     26 C26        -9.3621   -1.9307   61.4922 C.ar    1  ZINC001362587626   -0.0800
     27 H27       -10.6517    3.0586   63.1160 H       1  ZINC001362587626    0.0700
     28 H28       -12.1867    2.5353   63.8495 H       1  ZINC001362587626    0.0800
     29 H29       -11.0002    3.4408   64.8191 H       1  ZINC001362587626    0.0800
     30 H30        -8.5761    2.3151   64.2356 H       1  ZINC001362587626    0.4100
     31 H31        -6.4328    0.0991   66.0724 H       1  ZINC001362587626    0.1500
     32 H32        -6.4486    1.4619   64.9274 H       1  ZINC001362587626    0.1400
     33 H33        -6.7198    3.9158   65.9455 H       1  ZINC001362587626    0.2400
     34 H34        -8.9967    0.9009   62.3381 H       1  ZINC001362587626    0.4100
     35 H35       -11.0339    0.6480   60.0773 H       1  ZINC001362587626    0.1300
     36 H36       -11.3131   -1.0267   58.2960 H       1  ZINC001362587626    0.1400
     37 H37       -12.4718   -3.2052   58.3959 H       1  ZINC001362587626    0.0900
     38 H38       -12.7124   -2.6503   56.0168 H       1  ZINC001362587626    0.1000
     39 H39       -10.9337   -2.2773   56.0981 H       1  ZINC001362587626    0.1000
     40 H40       -11.3528   -5.7427   57.4985 H       1  ZINC001362587626    0.1000
     41 H41       -13.0174   -5.1731   57.0363 H       1  ZINC001362587626    0.1000
     42 H42        -9.1019   -3.8588   60.6094 H       1  ZINC001362587626    0.1400
     43 H43        -8.8158   -2.1834   62.3891 H       1  ZINC001362587626    0.1500
@<TRIPOS>BOND
     1     1     2    1
     2     1    27    1
     3     1    28    1
     4     1    29    1
     5     2     3    1
     6     2     4    1
     7     2    13    1
     8     4     5   am
     9     4    30    1
    10     5     6    2
    11     5     7    1
    12     7     8    1
    13     7    31    1
    14     7    32    1
    15     8    12    1
    16     8     9    1
    17     9    10    2
    18     9    33    1
    19    10    11    1
    20    11    12    2
    21    13    14    2
    22    13    15   am
    23    15    16    1
    24    15    34    1
    25    16    26   ar
    26    16    17   ar
    27    17    18   ar
    28    17    35    1
    29    18    19   ar
    30    18    36    1
    31    19    20    1
    32    19    25   ar
    33    20    21    1
    34    21    24    1
    35    21    22    1
    36    21    37    1
    37    22    23    1
    38    22    38    1
    39    22    39    1
    40    23    24    1
    41    24    40    1
    42    24    41    1
    43    25    26   ar
    44    25    42    1
    45    26    43    1
@<TRIPOS>SUBSTRUCTURE
     1 ZINC001362587626        1 TEMP              0 ****  ****    0 ROOT


##########                                Name:    ZINC000428748914
##########                DOCK_Rotatable_Bonds:                  11
##########                         Heavy_Atoms:                  30
##########                    Molecular_Weight:             413.492
##########                DOCK_Rotatable_Bonds:                  11
##########                       Formal_Charge:           0.0199993
##########                     HBond_Acceptors:                   7
##########                        HBond_Donors:                   3
##########                         Heavy_Atoms:                  30
##########                          Grid_Score:          -36.280025
##########                     Grid_vdw_energy:          -35.310184
##########                      Grid_es_energy:           -0.969841
##########           Internal_energy_repulsive:           19.843681

@<TRIPOS>MOLECULE
ZINC000428748914
 58 61 1 0 0
SMALL
USER_CHARGES


@<TRIPOS>ATOM
      1 O1        -12.8411   -3.4754   55.5954 O.2     1  ZINC000428748914   -0.5900
      2 C2        -11.6255   -3.5014   55.5891 C.2     1  ZINC000428748914    0.7000
      3 N3        -10.9622   -3.7314   54.4387 N.am    1  ZINC000428748914   -0.7400
      4 C4        -11.7060   -3.9560   53.1967 C.3     1  ZINC000428748914    0.1900
      5 C5        -12.0684   -2.6290   52.5812 C.ar    1  ZINC000428748914   -0.2000
      6 C6        -11.1624   -1.5779   52.5968 C.ar    1  ZINC000428748914   -0.0200
      7 C7        -11.5357   -0.3761   52.0204 C.ar    1  ZINC000428748914   -0.1900
      8 C8        -12.7966   -0.2632   51.4494 C.ar    1  ZINC000428748914    0.3300
      9 O9        -13.1743    0.9093   50.8808 O.3     1  ZINC000428748914   -0.3000
     10 C10       -14.4937    0.9705   50.3354 C.3     1  ZINC000428748914    0.0800
     11 C11       -14.7197    2.3220   49.6133 C.3     1  ZINC000428748914   -0.1400
     12 C12       -15.8604    1.9917   48.6189 C.3     1  ZINC000428748914   -0.1200
     13 C13       -15.5372    0.5636   48.1333 C.3     1  ZINC000428748914   -0.1200
     14 C14       -14.6682   -0.0857   49.2246 C.3     1  ZINC000428748914   -0.1200
     15 N15       -13.6328   -1.2883   51.4542 N.ar    1  ZINC000428748914   -0.5400
     16 C16       -13.3035   -2.4477   51.9906 C.ar    1  ZINC000428748914    0.1600
     17 N17       -10.9413   -3.2948   56.7318 N.am    1  ZINC000428748914   -0.7400
     18 C18       -11.6622   -3.0447   57.9824 C.3     1  ZINC000428748914    0.1800
     19 C19       -10.7705   -2.2445   58.9339 C.3     1  ZINC000428748914   -0.1300
     20 C20       -10.6975   -0.7406   58.6619 C.3     1  ZINC000428748914    0.1100
     21 O21       -10.1882   -0.5188   57.3452 O.3     1  ZINC000428748914   -0.5700
     22 C22        -9.5087   -2.9292   59.4630 C.3     1  ZINC000428748914   -0.1400
     23 C23       -10.7031   -2.7027   60.3920 C.3     1  ZINC000428748914   -0.1000
     24 H24       -11.2940   -3.5743   60.6735 H       1  ZINC000428748914    0.1200
     25 C25       -10.5691   -1.6387   61.4508 C.ar    1  ZINC000428748914   -0.0700
     26 C26        -9.4407   -1.5961   62.2484 C.ar    1  ZINC000428748914   -0.0900
     27 C27        -9.3167   -0.6209   63.2196 C.ar    1  ZINC000428748914   -0.1500
     28 C28       -10.3230    0.3142   63.3933 C.ar    1  ZINC000428748914    0.1000
     29 F29       -10.2027    1.2683   64.3422 F       1  ZINC000428748914   -0.1400
     30 C30       -11.4525    0.2709   62.5936 C.ar    1  ZINC000428748914   -0.1500
     31 C31       -11.5721   -0.7025   61.6199 C.ar    1  ZINC000428748914   -0.0800
     32 H32        -9.9923   -3.7483   54.4330 H       1  ZINC000428748914    0.4000
     33 H33       -11.0878   -4.5228   52.5003 H       1  ZINC000428748914    0.0800
     34 H34       -12.6153   -4.5163   53.4140 H       1  ZINC000428748914    0.0800
     35 H35       -10.1885   -1.6947   53.0486 H       1  ZINC000428748914    0.1400
     36 H36       -10.8556    0.4630   52.0151 H       1  ZINC000428748914    0.1400
     37 H37       -15.2368    0.8257   51.1196 H       1  ZINC000428748914    0.1000
     38 H38       -15.0338    3.0899   50.3203 H       1  ZINC000428748914    0.0700
     39 H39       -13.8202    2.6306   49.0806 H       1  ZINC000428748914    0.0800
     40 H40       -16.8256    2.0134   49.1248 H       1  ZINC000428748914    0.0700
     41 H41       -15.8513    2.6904   47.7823 H       1  ZINC000428748914    0.0700
     42 H42       -16.4585   -0.0039   48.0028 H       1  ZINC000428748914    0.0700
     43 H43       -14.9871    0.6045   47.1932 H       1  ZINC000428748914    0.0700
     44 H44       -13.6964   -0.3599   48.8142 H       1  ZINC000428748914    0.0800
     45 H45       -15.1680   -0.9683   49.6238 H       1  ZINC000428748914    0.0700
     46 H46       -14.0121   -3.2626   51.9757 H       1  ZINC000428748914    0.1600
     47 H47        -9.9714   -3.3115   56.7261 H       1  ZINC000428748914    0.3900
     48 H48       -12.5693   -2.4783   57.7718 H       1  ZINC000428748914    0.0700
     49 H49       -11.9268   -3.9953   58.4455 H       1  ZINC000428748914    0.0900
     50 H50       -11.6946   -0.3078   58.7435 H       1  ZINC000428748914    0.0500
     51 H51       -10.0370   -0.2712   59.3908 H       1  ZINC000428748914    0.0600
     52 H52       -10.1810    0.4104   57.0777 H       1  ZINC000428748914    0.3800
     53 H53        -9.3139   -3.9497   59.1332 H       1  ZINC000428748914    0.1100
     54 H54        -8.6261   -2.3083   59.6173 H       1  ZINC000428748914    0.1100
     55 H55        -8.6559   -2.3257   62.1126 H       1  ZINC000428748914    0.1400
     56 H56        -8.4355   -0.5883   63.8430 H       1  ZINC000428748914    0.1400
     57 H57       -12.2382    0.9995   62.7285 H       1  ZINC000428748914    0.1400
     58 H58       -12.4528   -0.7362   60.9957 H       1  ZINC000428748914    0.1300
@<TRIPOS>BOND
     1     1     2    2
     2     2     3   am
     3     2    17   am
     4     3     4    1
     5     3    32    1
     6     4     5    1
     7     4    33    1
     8     4    34    1
     9     5    16   ar
    10     5     6   ar
    11     6     7   ar
    12     6    35    1
    13     7     8   ar
    14     7    36    1
    15     8     9    1
    16     8    15   ar
    17     9    10    1
    18    10    14    1
    19    10    11    1
    20    10    37    1
    21    11    12    1
    22    11    38    1
    23    11    39    1
    24    12    13    1
    25    12    40    1
    26    12    41    1
    27    13    14    1
    28    13    42    1
    29    13    43    1
    30    14    44    1
    31    14    45    1
    32    15    16   ar
    33    16    46    1
    34    17    18    1
    35    17    47    1
    36    18    19    1
    37    18    48    1
    38    18    49    1
    39    19    23    1
    40    19    20    1
    41    19    22    1
    42    20    21    1
    43    20    50    1
    44    20    51    1
    45    21    52    1
    46    22    23    1
    47    22    53    1
    48    22    54    1
    49    23    24    1
    50    23    25    1
    51    25    31   ar
    52    25    26   ar
    53    26    27   ar
    54    26    55    1
    55    27    28   ar
    56    27    56    1
    57    28    29    1
    58    28    30   ar
    59    30    31   ar
    60    30    57    1
    61    31    58    1
@<TRIPOS>SUBSTRUCTURE
     1 ZINC000428748914        1 TEMP              0 ****  ****    0 ROOT


##########                                Name:    ZINC001347442583
##########                DOCK_Rotatable_Bonds:                   9
##########                         Heavy_Atoms:                  27
##########                    Molecular_Weight:             370.492
##########                DOCK_Rotatable_Bonds:                   9
##########                       Formal_Charge:          -0.0400009
##########                     HBond_Acceptors:                   5
##########                        HBond_Donors:                   1
##########                         Heavy_Atoms:                  27
##########                          Grid_Score:          -36.245029
##########                     Grid_vdw_energy:          -36.148335
##########                      Grid_es_energy:           -0.096696
##########           Internal_energy_repulsive:           10.518869

@<TRIPOS>MOLECULE
ZINC001347442583
 57 60 1 0 0
SMALL
USER_CHARGES


@<TRIPOS>ATOM
      1 O1         -9.2547   -1.4008   52.1792 O.2     1  ZINC001347442583   -0.5400
      2 C2        -10.0347   -0.9617   52.9977 C.2     1  ZINC001347442583    0.5400
      3 C3         -9.8431    0.4265   53.5520 C.3     1  ZINC001347442583   -0.1400
      4 C4         -9.1076    1.2891   52.5244 C.3     1  ZINC001347442583   -0.1000
      5 C5         -8.9115    2.6979   53.0880 C.3     1  ZINC001347442583   -0.1100
      6 C6         -8.1252    3.5438   52.0842 C.3     1  ZINC001347442583   -0.0800
      7 C7         -6.7400    2.9727   51.9225 C.ar    1  ZINC001347442583   -0.0800
      8 C8         -5.7605    3.2606   52.8545 C.ar    1  ZINC001347442583   -0.1200
      9 C9         -4.4899    2.7368   52.7060 C.ar    1  ZINC001347442583   -0.1200
     10 C10        -4.1988    1.9248   51.6259 C.ar    1  ZINC001347442583   -0.1300
     11 C11        -5.1785    1.6361   50.6944 C.ar    1  ZINC001347442583   -0.1200
     12 C12        -6.4504    2.1564   50.8451 C.ar    1  ZINC001347442583   -0.1200
     13 N13       -11.0759   -1.7130   53.4072 N.am    1  ZINC001347442583   -0.6300
     14 C14       -11.4952   -3.1037   53.0233 C.3     1  ZINC001347442583    0.1200
     15 H15       -10.8662   -3.6035   52.2867 H       1  ZINC001347442583    0.1200
     16 C16       -12.9731   -2.8617   52.5921 C.3     1  ZINC001347442583   -0.1300
     17 C17       -13.4361   -1.7132   53.5220 C.3     1  ZINC001347442583   -0.1300
     18 C18       -12.1711   -1.4201   54.3931 C.3     1  ZINC001347442583    0.1200
     19 H19       -12.1392   -0.4355   54.8597 H       1  ZINC001347442583    0.1200
     20 C20       -12.0619   -2.6303   55.3689 C.3     1  ZINC001347442583    0.1300
     21 H21       -13.0310   -2.8517   55.8162 H       1  ZINC001347442583    0.1100
     22 N22       -11.0636   -2.3670   56.4083 N.am    1  ZINC001347442583   -0.7200
     23 C23       -11.1120   -3.0399   57.5750 C.2     1  ZINC001347442583    0.5300
     24 O24       -11.9810   -3.8646   57.7638 O.2     1  ZINC001347442583   -0.5300
     25 C25       -10.0861   -2.7676   58.6449 C.3     1  ZINC001347442583   -0.1500
     26 H26        -9.2081   -2.2790   58.2226 H       1  ZINC001347442583    0.1100
     27 C27       -10.6956   -1.9148   59.7907 C.3     1  ZINC001347442583   -0.1400
     28 C28        -9.8224   -2.3649   60.9889 C.3     1  ZINC001347442583    0.0500
     29 O29        -9.5796   -3.7638   60.7714 O.3     1  ZINC001347442583   -0.3800
     30 C30        -9.6927   -4.0707   59.3733 C.3     1  ZINC001347442583    0.0700
     31 C31       -11.5693   -3.7898   54.4206 C.3     1  ZINC001347442583   -0.1400
     32 H32       -10.8156    0.8689   53.7683 H       1  ZINC001347442583    0.0900
     33 H33        -9.2560    0.3739   54.4689 H       1  ZINC001347442583    0.0900
     34 H34        -8.1358    0.8460   52.3070 H       1  ZINC001347442583    0.0700
     35 H35        -9.6954    1.3429   51.6080 H       1  ZINC001347442583    0.0700
     36 H36        -9.8839    3.1565   53.2665 H       1  ZINC001347442583    0.0600
     37 H37        -8.3590    2.6403   54.0259 H       1  ZINC001347442583    0.0600
     38 H38        -8.6368    3.5345   51.1218 H       1  ZINC001347442583    0.0700
     39 H39        -8.0553    4.5686   52.4488 H       1  ZINC001347442583    0.0700
     40 H40        -5.9878    3.8950   53.6983 H       1  ZINC001347442583    0.1200
     41 H41        -3.7244    2.9624   53.4338 H       1  ZINC001347442583    0.1200
     42 H42        -3.2059    1.5161   51.5095 H       1  ZINC001347442583    0.1200
     43 H43        -4.9511    1.0019   49.8503 H       1  ZINC001347442583    0.1200
     44 H44        -7.2159    1.9309   50.1174 H       1  ZINC001347442583    0.1200
     45 H45       -13.0230   -2.5540   51.5476 H       1  ZINC001347442583    0.0700
     46 H46       -13.5731   -3.7563   52.7589 H       1  ZINC001347442583    0.0800
     47 H47       -13.7156   -0.8358   52.9386 H       1  ZINC001347442583    0.0800
     48 H48       -14.2656   -2.0382   54.1499 H       1  ZINC001347442583    0.0800
     49 H49       -10.3679   -1.7082   56.2567 H       1  ZINC001347442583    0.4000
     50 H50       -10.5744   -0.8494   59.5947 H       1  ZINC001347442583    0.0900
     51 H51       -11.7439   -2.1658   59.9525 H       1  ZINC001347442583    0.0900
     52 H52        -8.8814   -1.8147   60.9990 H       1  ZINC001347442583    0.0700
     53 H53       -10.3591   -2.2152   61.9257 H       1  ZINC001347442583    0.0900
     54 H54       -10.4658   -4.8239   59.2214 H       1  ZINC001347442583    0.0700
     55 H55        -8.7380   -4.4378   58.9969 H       1  ZINC001347442583    0.0800
     56 H56       -12.2999   -4.5982   54.3910 H       1  ZINC001347442583    0.0900
     57 H57       -10.5964   -4.1615   54.7421 H       1  ZINC001347442583    0.0800
@<TRIPOS>BOND
     1     1     2    2
     2     2     3    1
     3     2    13   am
     4     3     4    1
     5     3    32    1
     6     3    33    1
     7     4     5    1
     8     4    34    1
     9     4    35    1
    10     5     6    1
    11     5    36    1
    12     5    37    1
    13     6     7    1
    14     6    38    1
    15     6    39    1
    16     7    12   ar
    17     7     8   ar
    18     8     9   ar
    19     8    40    1
    20     9    10   ar
    21     9    41    1
    22    10    11   ar
    23    10    42    1
    24    11    12   ar
    25    11    43    1
    26    12    44    1
    27    13    18    1
    28    13    14    1
    29    14    15    1
    30    14    31    1
    31    14    16    1
    32    16    17    1
    33    16    45    1
    34    16    46    1
    35    17    18    1
    36    17    47    1
    37    17    48    1
    38    18    19    1
    39    18    20    1
    40    20    21    1
    41    20    22    1
    42    20    31    1
    43    22    23   am
    44    22    49    1
    45    23    24    2
    46    23    25    1
    47    25    26    1
    48    25    30    1
    49    25    27    1
    50    27    28    1
    51    27    50    1
    52    27    51    1
    53    28    29    1
    54    28    52    1
    55    28    53    1
    56    29    30    1
    57    30    54    1
    58    30    55    1
    59    31    56    1
    60    31    57    1
@<TRIPOS>SUBSTRUCTURE
     1 ZINC001347442583        1 TEMP              0 ****  ****    0 ROOT


##########                                Name:    ZINC001707804910
##########                DOCK_Rotatable_Bonds:                   4
##########                         Heavy_Atoms:                  26
##########                    Molecular_Weight:             358.403
##########                DOCK_Rotatable_Bonds:                   4
##########                       Formal_Charge:          -0.0399996
##########                     HBond_Acceptors:                  10
##########                        HBond_Donors:                   0
##########                         Heavy_Atoms:                  26
##########                          Grid_Score:          -36.242294
##########                     Grid_vdw_energy:          -35.909073
##########                      Grid_es_energy:           -0.333223
##########           Internal_energy_repulsive:            9.859198

@<TRIPOS>MOLECULE
ZINC001707804910
 48 51 1 0 0
SMALL
USER_CHARGES


@<TRIPOS>ATOM
      1 C1        -15.9540   -0.5127   65.6856 C.3     1  ZINC001707804910   -0.0700
      2 C2        -15.1313   -0.6938   64.4360 C.2     1  ZINC001707804910    0.0700
      3 N3        -15.2179   -1.6957   63.5990 N.2     1  ZINC001707804910   -0.2800
      4 N4        -14.2867   -1.4904   62.5728 N.pl3   1  ZINC001707804910   -0.3700
      5 C5        -14.0553   -2.3762   61.4291 C.3     1  ZINC001707804910    0.0900
      6 C6        -13.6404   -0.3326   62.8238 C.2     1  ZINC001707804910    0.0500
      7 C7        -12.5530    0.2792   61.9787 C.3     1  ZINC001707804910    0.1800
      8 N8        -11.2469   -0.1854   62.4522 N.pl3   1  ZINC001707804910   -0.4600
      9 C9        -10.6189    0.1629   63.6159 C.2     1  ZINC001707804910    0.1900
     10 C10       -11.1442    1.1073   64.6662 C.3     1  ZINC001707804910   -0.0700
     11 N11        -9.4826   -0.4738   63.6487 N.2     1  ZINC001707804910   -0.2800
     12 N12        -9.3509   -1.1950   62.5929 N.2     1  ZINC001707804910   -0.3000
     13 C13       -10.4071   -1.0599   61.8262 C.2     1  ZINC001707804910    0.3500
     14 N14       -10.6247   -1.6814   60.6068 N.3     1  ZINC001707804910   -0.4600
     15 C15        -9.9243   -2.9722   60.5409 C.3     1  ZINC001707804910    0.0200
     16 C16       -10.2395   -3.6501   59.2049 C.3     1  ZINC001707804910    0.0700
     17 O17        -9.8685   -2.7776   58.1342 O.3     1  ZINC001707804910   -0.3600
     18 C18       -10.5323   -1.5113   58.1670 C.3     1  ZINC001707804910    0.2000
     19 H19       -11.6083   -1.6621   58.0796 H       1  ZINC001707804910    0.1000
     20 C20       -10.0488   -0.6598   57.0216 C.2     1  ZINC001707804910    0.1600
     21 N21        -9.0985    0.2300   57.0700 N.2     1  ZINC001707804910   -0.2500
     22 N22        -8.9534    0.7633   55.9081 N.2     1  ZINC001707804910   -0.2900
     23 C23        -9.8062    0.2321   55.0790 C.2     1  ZINC001707804910    0.1700
     24 C24        -9.9652    0.5765   53.6205 C.3     1  ZINC001707804910   -0.0600
     25 O25       -10.5149   -0.6829   55.7616 O.3     1  ZINC001707804910   -0.2200
     26 C26       -10.2202   -0.8118   59.4927 C.3     1  ZINC001707804910    0.0400
     27 C27       -14.1476    0.1832   63.9674 C.2     1  ZINC001707804910   -0.2300
     28 H28       -16.8629    0.0389   65.4454 H       1  ZINC001707804910    0.0800
     29 H29       -16.2181   -1.4892   66.0915 H       1  ZINC001707804910    0.0700
     30 H30       -15.3759    0.0433   66.4238 H       1  ZINC001707804910    0.0800
     31 H31       -14.7784   -2.1531   60.6445 H       1  ZINC001707804910    0.0800
     32 H32       -13.0461   -2.2210   61.0477 H       1  ZINC001707804910    0.0900
     33 H33       -14.1693   -3.4135   61.7439 H       1  ZINC001707804910    0.0900
     34 H34       -12.6898   -0.0187   60.9392 H       1  ZINC001707804910    0.1100
     35 H35       -12.6017    1.3655   62.0547 H       1  ZINC001707804910    0.1200
     36 H36       -11.8105    0.5678   65.3394 H       1  ZINC001707804910    0.0900
     37 H37       -10.3102    1.5196   65.2340 H       1  ZINC001707804910    0.1000
     38 H38       -11.6920    1.9176   64.1850 H       1  ZINC001707804910    0.0700
     39 H39        -8.8498   -2.8079   60.6212 H       1  ZINC001707804910    0.0700
     40 H40       -10.2578   -3.6095   61.3601 H       1  ZINC001707804910    0.0900
     41 H41        -9.6773   -4.5808   59.1274 H       1  ZINC001707804910    0.1200
     42 H42       -11.3069   -3.8632   59.1477 H       1  ZINC001707804910    0.0700
     43 H43        -9.3145   -0.0623   53.0233 H       1  ZINC001707804910    0.1000
     44 H44       -11.0016    0.4208   53.3212 H       1  ZINC001707804910    0.1000
     45 H45        -9.6942    1.6204   53.4621 H       1  ZINC001707804910    0.1100
     46 H46       -10.7697    0.1280   59.5464 H       1  ZINC001707804910    0.1000
     47 H47        -9.1504   -0.6128   59.5561 H       1  ZINC001707804910    0.0800
     48 H48       -13.8422    1.1058   64.4386 H       1  ZINC001707804910    0.1500
@<TRIPOS>BOND
     1     1     2    1
     2     1    28    1
     3     1    29    1
     4     1    30    1
     5     2    27    1
     6     2     3    2
     7     3     4    1
     8     4     5    1
     9     4     6    1
    10     5    31    1
    11     5    32    1
    12     5    33    1
    13     6     7    1
    14     6    27    2
    15     7     8    1
    16     7    34    1
    17     7    35    1
    18     8    13    1
    19     8     9    1
    20     9    10    1
    21     9    11    2
    22    10    36    1
    23    10    37    1
    24    10    38    1
    25    11    12    1
    26    12    13    2
    27    13    14    1
    28    14    26    1
    29    14    15    1
    30    15    16    1
    31    15    39    1
    32    15    40    1
    33    16    17    1
    34    16    41    1
    35    16    42    1
    36    17    18    1
    37    18    19    1
    38    18    20    1
    39    18    26    1
    40    20    25    1
    41    20    21    2
    42    21    22    1
    43    22    23    2
    44    23    24    1
    45    23    25    1
    46    24    43    1
    47    24    44    1
    48    24    45    1
    49    26    46    1
    50    26    47    1
    51    27    48    1
@<TRIPOS>SUBSTRUCTURE
     1 ZINC001707804910        1 TEMP              0 ****  ****    0 ROOT


##########                                Name:    ZINC001061022329
##########                DOCK_Rotatable_Bonds:                   7
##########                         Heavy_Atoms:                  27
##########                    Molecular_Weight:             374.523
##########                DOCK_Rotatable_Bonds:                   7
##########                       Formal_Charge:           0.0800005
##########                     HBond_Acceptors:                   5
##########                        HBond_Donors:                   0
##########                         Heavy_Atoms:                  27
##########                          Grid_Score:          -36.217663
##########                     Grid_vdw_energy:          -34.609226
##########                      Grid_es_energy:           -1.608438
##########           Internal_energy_repulsive:           21.964142

@<TRIPOS>MOLECULE
ZINC001061022329
 61 64 1 0 0
SMALL
USER_CHARGES


@<TRIPOS>ATOM
      1 C1        -10.4995    1.4678   67.3234 C.3     1  ZINC001061022329   -0.1500
      2 C2         -9.2945    1.8798   66.4752 C.3     1  ZINC001061022329   -0.1200
      3 C3         -8.9334    0.7436   65.5163 C.3     1  ZINC001061022329    0.0800
      4 H4         -8.1153    1.0602   64.8694 H       1  ZINC001061022329    0.0600
      5 C5         -8.5017   -0.4845   66.3204 C.3     1  ZINC001061022329   -0.1800
      6 O6        -10.0719    0.4141   64.7179 O.3     1  ZINC001061022329   -0.3500
      7 C7         -9.7550   -0.2940   63.5179 C.3     1  ZINC001061022329    0.0500
      8 C8        -11.0289   -0.7021   62.8241 C.2     1  ZINC001061022329    0.5200
      9 O9        -12.1022   -0.4523   63.3307 O.2     1  ZINC001061022329   -0.5100
     10 N10       -10.9757   -1.3445   61.6405 N.am    1  ZINC001061022329   -0.6100
     11 C11        -9.6815   -1.6560   61.0197 C.3     1  ZINC001061022329    0.1100
     12 C12        -9.6566   -1.0614   59.6066 C.3     1  ZINC001061022329   -0.1200
     13 C13       -10.8963   -1.5267   58.8465 C.3     1  ZINC001061022329   -0.0900
     14 C14       -10.8693   -1.1758   57.3525 C.3     1  ZINC001061022329    0.1200
     15 N15       -11.4013   -2.5351   57.1299 N.am    1  ZINC001061022329   -0.6400
     16 C16       -12.1172   -3.1196   56.1488 C.2     1  ZINC001061022329    0.5400
     17 O17       -12.4234   -4.2899   56.2362 O.2     1  ZINC001061022329   -0.5300
     18 C18       -12.5373   -2.3187   54.9433 C.3     1  ZINC001061022329   -0.0900
     19 H19       -12.6523   -1.2720   55.2248 H       1  ZINC001061022329    0.1000
     20 C20       -13.8700   -2.8540   54.4147 C.3     1  ZINC001061022329   -0.1000
     21 C21       -13.6933   -3.3335   52.9683 C.3     1  ZINC001061022329   -0.0600
     22 H22       -14.6188   -3.7668   52.5891 H       1  ZINC001061022329    0.0800
     23 C23       -12.5704   -4.3601   52.9514 C.2     1  ZINC001061022329   -0.1800
     24 C24       -11.4113   -3.8946   53.4110 C.2     1  ZINC001061022329   -0.1300
     25 C25       -11.4667   -2.4396   53.8512 C.3     1  ZINC001061022329   -0.0400
     26 H26       -10.4934   -2.1076   54.2123 H       1  ZINC001061022329    0.0900
     27 C27       -11.9131   -1.6038   52.6436 C.3     1  ZINC001061022329   -0.1100
     28 C28       -13.2625   -2.1348   52.1120 C.3     1  ZINC001061022329   -0.1100
     29 C29       -10.8339   -2.9977   58.4121 C.3     1  ZINC001061022329    0.1100
     30 C30       -12.2031   -1.1497   59.5398 C.3     1  ZINC001061022329   -0.1100
     31 C31       -12.2110   -1.7486   60.9562 C.3     1  ZINC001061022329    0.1100
     32 H32       -11.3480    1.2589   66.6719 H       1  ZINC001061022329    0.0500
     33 H33       -10.2521    0.5740   67.8960 H       1  ZINC001061022329    0.0600
     34 H34       -10.7567    2.2773   68.0066 H       1  ZINC001061022329    0.0600
     35 H35        -9.5418    2.7737   65.9027 H       1  ZINC001061022329    0.0800
     36 H36        -8.4460    2.0888   67.1268 H       1  ZINC001061022329    0.0700
     37 H37        -8.2446   -1.2940   65.6373 H       1  ZINC001061022329    0.0600
     38 H38        -7.6334   -0.2332   66.9293 H       1  ZINC001061022329    0.0700
     39 H39        -9.3199   -0.8012   66.9673 H       1  ZINC001061022329    0.0700
     40 H40        -9.1727    0.3501   62.8589 H       1  ZINC001061022329    0.0800
     41 H41        -9.1740   -1.1831   63.7633 H       1  ZINC001061022329    0.0800
     42 H42        -8.8774   -1.2212   61.6134 H       1  ZINC001061022329    0.0900
     43 H43        -9.5538   -2.7371   60.9636 H       1  ZINC001061022329    0.0800
     44 H44        -9.6545    0.0268   59.6691 H       1  ZINC001061022329    0.0800
     45 H45        -8.7611   -1.3992   59.0848 H       1  ZINC001061022329    0.0800
     46 H46       -11.5622   -0.3814   57.0749 H       1  ZINC001061022329    0.0800
     47 H47        -9.8659   -1.0255   56.9541 H       1  ZINC001061022329    0.0900
     48 H48       -14.1987   -3.6872   55.0359 H       1  ZINC001061022329    0.0700
     49 H49       -14.6176   -2.0613   54.4457 H       1  ZINC001061022329    0.0700
     50 H50       -12.7016   -5.3725   52.5991 H       1  ZINC001061022329    0.1200
     51 H51       -10.5149   -4.4943   53.4668 H       1  ZINC001061022329    0.1200
     52 H52       -12.0341   -0.5638   52.9465 H       1  ZINC001061022329    0.0700
     53 H53       -11.1592   -1.6679   51.8590 H       1  ZINC001061022329    0.0700
     54 H54       -13.1446   -2.4540   51.0765 H       1  ZINC001061022329    0.0700
     55 H55       -14.0103   -1.3435   52.1650 H       1  ZINC001061022329    0.0700
     56 H56        -9.8198   -3.3889   58.3286 H       1  ZINC001061022329    0.0900
     57 H57       -11.4985   -3.6515   58.9768 H       1  ZINC001061022329    0.0800
     58 H58       -12.2838   -0.0644   59.6001 H       1  ZINC001061022329    0.0800
     59 H59       -13.0445   -1.5477   58.9726 H       1  ZINC001061022329    0.0800
     60 H60       -12.2612   -2.8356   60.8930 H       1  ZINC001061022329    0.0700
     61 H61       -13.0728   -1.3724   61.5073 H       1  ZINC001061022329    0.1000
@<TRIPOS>BOND
     1     1     2    1
     2     1    32    1
     3     1    33    1
     4     1    34    1
     5     2     3    1
     6     2    35    1
     7     2    36    1
     8     3     4    1
     9     3     5    1
    10     3     6    1
    11     5    37    1
    12     5    38    1
    13     5    39    1
    14     6     7    1
    15     7     8    1
    16     7    40    1
    17     7    41    1
    18     8     9    2
    19     8    10   am
    20    10    31    1
    21    10    11    1
    22    11    12    1
    23    11    42    1
    24    11    43    1
    25    12    13    1
    26    12    44    1
    27    12    45    1
    28    13    29    1
    29    13    14    1
    30    13    30    1
    31    14    15    1
    32    14    46    1
    33    14    47    1
    34    15    16   am
    35    15    29    1
    36    16    17    2
    37    16    18    1
    38    18    19    1
    39    18    25    1
    40    18    20    1
    41    20    21    1
    42    20    48    1
    43    20    49    1
    44    21    22    1
    45    21    28    1
    46    21    23    1
    47    23    24    2
    48    23    50    1
    49    24    25    1
    50    24    51    1
    51    25    26    1
    52    25    27    1
    53    27    28    1
    54    27    52    1
    55    27    53    1
    56    28    54    1
    57    28    55    1
    58    29    56    1
    59    29    57    1
    60    30    31    1
    61    30    58    1
    62    30    59    1
    63    31    60    1
    64    31    61    1
@<TRIPOS>SUBSTRUCTURE
     1 ZINC001061022329        1 TEMP              0 ****  ****    0 ROOT


##########                                Name:    ZINC000981700465
##########                DOCK_Rotatable_Bonds:                   9
##########                         Heavy_Atoms:                  26
##########                    Molecular_Weight:             356.428
##########                DOCK_Rotatable_Bonds:                   9
##########                       Formal_Charge:               -0.01
##########                     HBond_Acceptors:                   8
##########                        HBond_Donors:                   3
##########                         Heavy_Atoms:                  26
##########                          Grid_Score:          -36.210155
##########                     Grid_vdw_energy:          -35.020355
##########                      Grid_es_energy:           -1.189800
##########           Internal_energy_repulsive:           13.727573

@<TRIPOS>MOLECULE
ZINC000981700465
 50 52 1 0 0
SMALL
USER_CHARGES


@<TRIPOS>ATOM
      1 C1         -4.6883    4.2684   54.4249 C.3     1  ZINC000981700465   -0.1500
      2 C2         -5.5163    4.7442   53.2294 C.3     1  ZINC000981700465   -0.1100
      3 C3         -6.2654    3.5562   52.6226 C.3     1  ZINC000981700465   -0.0500
      4 C4         -5.3213    2.7506   51.7678 C.2     1  ZINC000981700465    0.1400
      5 N5         -4.1155    3.1027   51.4162 N.2     1  ZINC000981700465   -0.2900
      6 N6         -3.5603    2.0908   50.6251 N.pl3   1  ZINC000981700465   -0.4600
      7 C7         -4.4624    1.1043   50.5007 C.2     1  ZINC000981700465    0.1000
      8 C8         -5.5847    1.4786   51.2118 C.2     1  ZINC000981700465   -0.2900
      9 C9         -6.8292    0.7014   51.3558 C.2     1  ZINC000981700465    0.5900
     10 O10        -7.0351   -0.2560   50.6350 O.2     1  ZINC000981700465   -0.5300
     11 N11        -7.7389    1.0521   52.2865 N.am    1  ZINC000981700465   -0.7300
     12 C12        -8.9763    0.2809   52.4284 C.3     1  ZINC000981700465    0.1300
     13 C13        -9.9134    0.9954   53.4043 C.3     1  ZINC000981700465   -0.1100
     14 H14        -9.9941    2.0521   53.1497 H       1  ZINC000981700465    0.0900
     15 C15       -11.3114    0.3284   53.4001 C.3     1  ZINC000981700465   -0.1200
     16 C16       -11.8839    0.7261   54.7832 C.3     1  ZINC000981700465   -0.1300
     17 C17       -10.6692    0.6516   55.7312 C.3     1  ZINC000981700465    0.1400
     18 H18       -10.7213    1.4527   56.4685 H       1  ZINC000981700465    0.1000
     19 N19       -10.6375   -0.6488   56.4050 N.am    1  ZINC000981700465   -0.7100
     20 C20        -9.9833   -0.7855   57.5754 C.2     1  ZINC000981700465    0.5600
     21 O21        -9.4187    0.1696   58.0711 O.2     1  ZINC000981700465   -0.5200
     22 C22        -9.9527   -2.1000   58.2577 C.ar    1  ZINC000981700465   -0.1400
     23 C23        -9.3004   -2.2635   59.4865 C.ar    1  ZINC000981700465   -0.0600
     24 C24        -9.3149   -3.5230   60.0636 C.ar    1  ZINC000981700465    0.0400
     25 N25        -9.9298   -4.5190   59.4561 N.ar    1  ZINC000981700465   -0.2200
     26 N26       -10.5290   -4.3760   58.3309 N.ar    1  ZINC000981700465   -0.2400
     27 C27       -10.5787   -3.2186   57.7005 C.ar    1  ZINC000981700465    0.0700
     28 C28        -9.4143    0.8258   54.8542 C.3     1  ZINC000981700465   -0.1200
     29 H29        -3.9711    3.5171   54.0941 H       1  ZINC000981700465    0.0600
     30 H30        -4.1547    5.1147   54.8572 H       1  ZINC000981700465    0.0600
     31 H31        -5.3494    3.8341   55.1749 H       1  ZINC000981700465    0.0500
     32 H32        -6.2336    5.4953   53.5602 H       1  ZINC000981700465    0.0600
     33 H33        -4.8553    5.1784   52.4794 H       1  ZINC000981700465    0.0600
     34 H34        -6.6581    2.9276   53.4218 H       1  ZINC000981700465    0.1000
     35 H35        -7.0893    3.9210   52.0092 H       1  ZINC000981700465    0.0800
     36 H36        -2.6732    2.1004   50.2328 H       1  ZINC000981700465    0.4500
     37 H37        -4.3322    0.1848   49.9493 H       1  ZINC000981700465    0.1800
     38 H38        -7.5741    1.8151   52.8623 H       1  ZINC000981700465    0.4000
     39 H39        -9.4625    0.1920   51.4569 H       1  ZINC000981700465    0.0700
     40 H40        -8.7433   -0.7130   52.8102 H       1  ZINC000981700465    0.0700
     41 H41       -11.9285    0.7301   52.5964 H       1  ZINC000981700465    0.0700
     42 H42       -11.2223   -0.7546   53.3157 H       1  ZINC000981700465    0.0700
     43 H43       -12.2832    1.7399   54.7536 H       1  ZINC000981700465    0.0800
     44 H44       -12.6544    0.0206   55.0943 H       1  ZINC000981700465    0.0700
     45 H45       -11.0872   -1.4115   56.0089 H       1  ZINC000981700465    0.4000
     46 H46        -8.8020   -1.4351   59.9679 H       1  ZINC000981700465    0.1700
     47 H47        -8.8227   -3.6890   61.0106 H       1  ZINC000981700465    0.1800
     48 H48       -11.0933   -3.1374   56.7545 H       1  ZINC000981700465    0.1700
     49 H49        -8.7813   -0.0583   54.9283 H       1  ZINC000981700465    0.0800
     50 H50        -8.8596    1.7102   55.1676 H       1  ZINC000981700465    0.0800
@<TRIPOS>BOND
     1     1     2    1
     2     1    29    1
     3     1    30    1
     4     1    31    1
     5     2     3    1
     6     2    32    1
     7     2    33    1
     8     3     4    1
     9     3    34    1
    10     3    35    1
    11     4     8    1
    12     4     5    2
    13     5     6    1
    14     6     7    1
    15     6    36    1
    16     7     8    2
    17     7    37    1
    18     8     9    1
    19     9    10    2
    20     9    11   am
    21    11    12    1
    22    11    38    1
    23    12    13    1
    24    12    39    1
    25    12    40    1
    26    13    14    1
    27    13    28    1
    28    13    15    1
    29    15    16    1
    30    15    41    1
    31    15    42    1
    32    16    17    1
    33    16    43    1
    34    16    44    1
    35    17    18    1
    36    17    19    1
    37    17    28    1
    38    19    20   am
    39    19    45    1
    40    20    21    2
    41    20    22    1
    42    22    27   ar
    43    22    23   ar
    44    23    24   ar
    45    23    46    1
    46    24    25   ar
    47    24    47    1
    48    25    26   ar
    49    26    27   ar
    50    27    48    1
    51    28    49    1
    52    28    50    1
@<TRIPOS>SUBSTRUCTURE
     1 ZINC000981700465        1 TEMP              0 ****  ****    0 ROOT


##########                                Name:    ZINC001400108193
##########                DOCK_Rotatable_Bonds:                   9
##########                         Heavy_Atoms:                  25
##########                    Molecular_Weight:              344.41
##########                DOCK_Rotatable_Bonds:                   9
##########                       Formal_Charge:           0.0200001
##########                     HBond_Acceptors:                   6
##########                        HBond_Donors:                   2
##########                         Heavy_Atoms:                  25
##########                          Grid_Score:          -36.136250
##########                     Grid_vdw_energy:          -35.504349
##########                      Grid_es_energy:           -0.631901
##########           Internal_energy_repulsive:            7.760679

@<TRIPOS>MOLECULE
ZINC001400108193
 49 50 1 0 0
SMALL
USER_CHARGES


@<TRIPOS>ATOM
      1 C1        -17.0766   -3.2668   46.2087 C.3     1  ZINC001400108193   -0.0800
      2 C2        -16.0613   -2.8098   47.2243 C.2     1  ZINC001400108193   -0.0100
      3 C3        -16.1295   -3.0302   48.5461 C.2     1  ZINC001400108193   -0.1600
      4 C4        -14.9300   -2.4052   49.1225 C.2     1  ZINC001400108193   -0.2300
      5 C5        -14.5391   -2.3697   50.5429 C.2     1  ZINC001400108193    0.5900
      6 O6        -15.2442   -2.8983   51.3811 O.2     1  ZINC001400108193   -0.5300
      7 N7        -13.4002   -1.7514   50.9132 N.am    1  ZINC001400108193   -0.7300
      8 C8        -13.0125   -1.7146   52.3255 C.3     1  ZINC001400108193    0.1100
      9 C9        -12.0154   -2.8397   52.6101 C.3     1  ZINC001400108193    0.1300
     10 H10       -12.3581   -3.7580   52.1336 H       1  ZINC001400108193    0.1000
     11 C11       -10.6426   -2.4576   52.0530 C.3     1  ZINC001400108193   -0.1600
     12 N12       -11.9144   -3.0484   54.0566 N.am    1  ZINC001400108193   -0.7300
     13 C13       -12.7679   -3.8863   54.6777 C.2     1  ZINC001400108193    0.5200
     14 O14       -13.6186   -4.4687   54.0389 O.2     1  ZINC001400108193   -0.5100
     15 C15       -12.6652   -4.0997   56.1661 C.3     1  ZINC001400108193    0.0700
     16 H16       -13.0810   -3.2368   56.6864 H       1  ZINC001400108193    0.1000
     17 C17       -13.4469   -5.3557   56.5563 C.3     1  ZINC001400108193   -0.1800
     18 O18       -11.2930   -4.2601   56.5308 O.3     1  ZINC001400108193   -0.2800
     19 C19       -10.8824   -3.6482   57.6727 C.ar    1  ZINC001400108193    0.1200
     20 C20       -10.9316   -2.2656   57.7764 C.ar    1  ZINC001400108193   -0.2100
     21 C21       -10.5142   -1.6460   58.9383 C.ar    1  ZINC001400108193   -0.0800
     22 C22       -10.0428   -2.4023   59.9956 C.ar    1  ZINC001400108193   -0.1200
     23 C23        -9.5823   -1.7233   61.2598 C.3     1  ZINC001400108193   -0.1100
     24 C24        -9.9978   -3.7807   59.8967 C.ar    1  ZINC001400108193   -0.0800
     25 C25       -10.4141   -4.4051   58.7368 C.ar    1  ZINC001400108193   -0.1400
     26 C26       -14.2576   -1.8598   48.0682 C.2     1  ZINC001400108193    0.0200
     27 O27       -14.9446   -2.1173   46.9510 O.3     1  ZINC001400108193   -0.1700
     28 H28       -17.8378   -2.4966   46.0840 H       1  ZINC001400108193    0.0900
     29 H29       -16.5810   -3.4456   45.2545 H       1  ZINC001400108193    0.0800
     30 H30       -17.5454   -4.1887   46.5530 H       1  ZINC001400108193    0.0900
     31 H31       -16.9066   -3.5590   49.0779 H       1  ZINC001400108193    0.1600
     32 H32       -12.8372   -1.3308   50.2445 H       1  ZINC001400108193    0.4000
     33 H33       -13.8969   -1.8467   52.9487 H       1  ZINC001400108193    0.0800
     34 H34       -12.5499   -0.7537   52.5504 H       1  ZINC001400108193    0.0900
     35 H35        -9.9323   -3.2590   52.2556 H       1  ZINC001400108193    0.0700
     36 H36       -10.7177   -2.3023   50.9766 H       1  ZINC001400108193    0.0700
     37 H37       -10.2998   -1.5391   52.5295 H       1  ZINC001400108193    0.0600
     38 H38       -11.2333   -2.5835   54.5674 H       1  ZINC001400108193    0.4000
     39 H39       -14.4936   -5.2335   56.2781 H       1  ZINC001400108193    0.0800
     40 H40       -13.0310   -6.2186   56.0361 H       1  ZINC001400108193    0.0800
     41 H41       -13.3726   -5.5101   57.6328 H       1  ZINC001400108193    0.0800
     42 H42       -11.2954   -1.6742   56.9491 H       1  ZINC001400108193    0.1300
     43 H43       -10.5519   -0.5698   59.0195 H       1  ZINC001400108193    0.1300
     44 H44       -10.4239   -1.6217   61.9449 H       1  ZINC001400108193    0.0700
     45 H45        -8.8015   -2.3213   61.7295 H       1  ZINC001400108193    0.0700
     46 H46        -9.1884   -0.7359   61.0190 H       1  ZINC001400108193    0.0700
     47 H47        -9.6331   -4.3694   60.7253 H       1  ZINC001400108193    0.1300
     48 H48       -10.3752   -5.4815   58.6587 H       1  ZINC001400108193    0.1300
     49 H49       -13.3269   -1.3150   48.1262 H       1  ZINC001400108193    0.2100
@<TRIPOS>BOND
     1     1     2    1
     2     1    28    1
     3     1    29    1
     4     1    30    1
     5     2    27    1
     6     2     3    2
     7     3     4    1
     8     3    31    1
     9     4     5    1
    10     4    26    2
    11     5     6    2
    12     5     7   am
    13     7     8    1
    14     7    32    1
    15     8     9    1
    16     8    33    1
    17     8    34    1
    18     9    10    1
    19     9    11    1
    20     9    12    1
    21    11    35    1
    22    11    36    1
    23    11    37    1
    24    12    13   am
    25    12    38    1
    26    13    14    2
    27    13    15    1
    28    15    16    1
    29    15    17    1
    30    15    18    1
    31    17    39    1
    32    17    40    1
    33    17    41    1
    34    18    19    1
    35    19    25   ar
    36    19    20   ar
    37    20    21   ar
    38    20    42    1
    39    21    22   ar
    40    21    43    1
    41    22    23    1
    42    22    24   ar
    43    23    44    1
    44    23    45    1
    45    23    46    1
    46    24    25   ar
    47    24    47    1
    48    25    48    1
    49    26    27    1
    50    26    49    1
@<TRIPOS>SUBSTRUCTURE
     1 ZINC001400108193        1 TEMP              0 ****  ****    0 ROOT


##########                                Name:    ZINC001169875900
##########                DOCK_Rotatable_Bonds:                   9
##########                         Heavy_Atoms:                  24
##########                    Molecular_Weight:             329.399
##########                DOCK_Rotatable_Bonds:                   9
##########                       Formal_Charge:          -0.0500002
##########                     HBond_Acceptors:                   6
##########                        HBond_Donors:                   1
##########                         Heavy_Atoms:                  24
##########                          Grid_Score:          -36.108902
##########                     Grid_vdw_energy:          -34.556934
##########                      Grid_es_energy:           -1.551969
##########           Internal_energy_repulsive:            7.902214

@<TRIPOS>MOLECULE
ZINC001169875900
 47 48 1 0 0
SMALL
USER_CHARGES


@<TRIPOS>ATOM
      1 C1        -15.1256   -4.8312   57.5631 C.3     1  ZINC001169875900   -0.1500
      2 C2        -14.0881   -3.9662   56.8447 C.3     1  ZINC001169875900   -0.1300
      3 C3        -12.8882   -4.8301   56.4512 C.3     1  ZINC001169875900    0.0700
      4 O4        -11.7856   -3.9873   56.1109 O.3     1  ZINC001169875900   -0.3100
      5 C5        -11.0793   -3.4510   57.1391 C.ar    1  ZINC001169875900    0.2700
      6 N6        -10.5635   -4.2451   58.0615 N.ar    1  ZINC001169875900   -0.5000
      7 C7         -9.8753   -3.7684   59.0816 C.ar    1  ZINC001169875900    0.0600
      8 C8         -9.6629   -2.4048   59.2177 C.ar    1  ZINC001169875900    0.1400
      9 N9         -8.9322   -1.9060   60.3026 N.pl3   1  ZINC001169875900   -0.7400
     10 C10        -9.3422   -2.2276   61.6717 C.3     1  ZINC001169875900    0.1800
     11 C11        -9.6478   -0.9539   62.4169 C.ar    1  ZINC001169875900    0.1000
     12 C12       -10.3055    0.0777   61.7660 C.ar    1  ZINC001169875900   -0.1200
     13 C13       -10.5846    1.2477   62.4552 C.ar    1  ZINC001169875900   -0.0800
     14 C14       -10.1924    1.3434   63.7810 C.ar    1  ZINC001169875900   -0.1000
     15 C15        -9.5347    0.2663   64.3718 C.ar    1  ZINC001169875900    0.0900
     16 C16        -9.1091    0.3527   65.7874 C.2     1  ZINC001169875900    0.5200
     17 O17        -9.9417    0.3966   66.6701 O.2     1  ZINC001169875900   -0.5000
     18 O18        -7.7985    0.3825   66.0958 O.3     1  ZINC001169875900   -0.3300
     19 C19        -6.9403    1.1919   65.2494 C.3     1  ZINC001169875900    0.0600
     20 C20        -5.4994    1.1102   65.7573 C.3     1  ZINC001169875900   -0.1500
     21 N21        -9.2914   -0.8387   63.6775 N.ar    1  ZINC001169875900   -0.4200
     22 C22       -10.1868   -1.5374   58.2608 C.ar    1  ZINC001169875900   -0.1200
     23 C23       -10.9025   -2.0750   57.2061 C.ar    1  ZINC001169875900   -0.1000
     24 C24       -11.4887   -1.1783   56.1462 C.3     1  ZINC001169875900   -0.1000
     25 H25       -14.6802   -5.2641   58.4589 H       1  ZINC001169875900    0.0600
     26 H26       -15.9804   -4.2158   57.8435 H       1  ZINC001169875900    0.0600
     27 H27       -15.4553   -5.6301   56.8990 H       1  ZINC001169875900    0.0600
     28 H28       -13.7583   -3.1673   57.5089 H       1  ZINC001169875900    0.0700
     29 H29       -14.5335   -3.5334   55.9489 H       1  ZINC001169875900    0.0700
     30 H30       -13.1514   -5.4483   55.5929 H       1  ZINC001169875900    0.0600
     31 H31       -12.6111   -5.4703   57.2888 H       1  ZINC001169875900    0.0600
     32 H32        -9.4733   -4.4477   59.8187 H       1  ZINC001169875900    0.1500
     33 H33        -8.1546   -1.3473   60.1477 H       1  ZINC001169875900    0.4000
     34 H34       -10.2324   -2.8562   61.6463 H       1  ZINC001169875900    0.0800
     35 H35        -8.5361   -2.7597   62.1770 H       1  ZINC001169875900    0.0800
     36 H36       -10.5974   -0.0287   60.7317 H       1  ZINC001169875900    0.1500
     37 H37       -11.0963    2.0657   61.9701 H       1  ZINC001169875900    0.1500
     38 H38       -10.3933    2.2404   64.3482 H       1  ZINC001169875900    0.1500
     39 H39        -6.9862    0.8214   64.2253 H       1  ZINC001169875900    0.0700
     40 H40        -7.2767    2.2283   65.2761 H       1  ZINC001169875900    0.0700
     41 H41        -5.4535    1.4808   66.7813 H       1  ZINC001169875900    0.0700
     42 H42        -5.1629    0.0738   65.7305 H       1  ZINC001169875900    0.0700
     43 H43        -4.8551    1.7179   65.1217 H       1  ZINC001169875900    0.0800
     44 H44       -10.0377   -0.4707   58.3409 H       1  ZINC001169875900    0.1400
     45 H45       -10.7637   -1.0423   55.3437 H       1  ZINC001169875900    0.0700
     46 H46       -11.7323   -0.2100   56.5836 H       1  ZINC001169875900    0.0700
     47 H47       -12.3939   -1.6338   55.7448 H       1  ZINC001169875900    0.0700
@<TRIPOS>BOND
     1     1     2    1
     2     1    25    1
     3     1    26    1
     4     1    27    1
     5     2     3    1
     6     2    28    1
     7     2    29    1
     8     3     4    1
     9     3    30    1
    10     3    31    1
    11     4     5    1
    12     5    23   ar
    13     5     6   ar
    14     6     7   ar
    15     7     8   ar
    16     7    32    1
    17     8     9    1
    18     8    22   ar
    19     9    10    1
    20     9    33    1
    21    10    11    1
    22    10    34    1
    23    10    35    1
    24    11    21   ar
    25    11    12   ar
    26    12    13   ar
    27    12    36    1
    28    13    14   ar
    29    13    37    1
    30    14    15   ar
    31    14    38    1
    32    15    16    1
    33    15    21   ar
    34    16    17    2
    35    16    18    1
    36    18    19    1
    37    19    20    1
    38    19    39    1
    39    19    40    1
    40    20    41    1
    41    20    42    1
    42    20    43    1
    43    22    23   ar
    44    22    44    1
    45    23    24    1
    46    24    45    1
    47    24    46    1
    48    24    47    1
@<TRIPOS>SUBSTRUCTURE
     1 ZINC001169875900        1 TEMP              0 ****  ****    0 ROOT


##########                                Name:    ZINC000937331732
##########                DOCK_Rotatable_Bonds:                   6
##########                         Heavy_Atoms:                  24
##########                    Molecular_Weight:              333.35
##########                DOCK_Rotatable_Bonds:                   6
##########                       Formal_Charge:          -0.0299999
##########                     HBond_Acceptors:                  10
##########                        HBond_Donors:                   1
##########                         Heavy_Atoms:                  24
##########                          Grid_Score:          -36.090984
##########                     Grid_vdw_energy:          -33.905525
##########                      Grid_es_energy:           -2.185459
##########           Internal_energy_repulsive:           17.858418

@<TRIPOS>MOLECULE
ZINC000937331732
 43 45 1 0 0
SMALL
USER_CHARGES


@<TRIPOS>ATOM
      1 C1        -13.5199   -4.9779   55.5714 C.3     1  ZINC000937331732    0.0600
      2 N2        -12.6629   -3.7901   55.5388 N.am    1  ZINC000937331732   -0.6100
      3 C3        -11.7475   -3.5929   56.5081 C.2     1  ZINC000937331732    0.5000
      4 O4        -11.0369   -2.6104   56.4804 O.2     1  ZINC000937331732   -0.5200
      5 C5        -11.6066   -4.5933   57.6264 C.3     1  ZINC000937331732    0.1500
      6 N6        -10.6693   -4.0779   58.6274 N.am    1  ZINC000937331732   -0.4400
      7 N7         -9.3722   -4.5497   58.8717 N.2     1  ZINC000937331732   -0.2800
      8 C8         -8.8601   -3.8435   59.8275 C.2     1  ZINC000937331732    0.2600
      9 N9         -9.7819   -2.9087   60.2312 N.am    1  ZINC000937331732   -0.5600
     10 C10        -9.5889   -1.9157   61.2908 C.3     1  ZINC000937331732    0.1000
     11 C11       -10.8925   -3.0571   59.4815 C.2     1  ZINC000937331732    0.6500
     12 O12       -11.9126   -2.3966   59.5649 O.2     1  ZINC000937331732   -0.5500
     13 C13       -12.8010   -2.8168   54.4527 C.3     1  ZINC000937331732    0.1300
     14 H14       -12.4788   -1.8281   54.7795 H       1  ZINC000937331732    0.1200
     15 C15       -11.9996   -3.2704   53.2039 C.3     1  ZINC000937331732   -0.1500
     16 C16       -12.7796   -2.5707   52.0629 C.3     1  ZINC000937331732    0.1000
     17 N17       -14.1938   -2.6434   52.4727 N.am    1  ZINC000937331732   -0.6000
     18 C18       -15.2554   -2.5949   51.6438 C.2     1  ZINC000937331732    0.6200
     19 O19       -16.3826   -2.6631   52.0946 O.2     1  ZINC000937331732   -0.5400
     20 C20       -15.0499   -2.4592   50.1903 C.2     1  ZINC000937331732    0.1400
     21 N21       -15.8007   -2.9961   49.2520 N.2     1  ZINC000937331732   -0.4400
     22 C22       -15.3145   -2.6593   48.0596 C.2     1  ZINC000937331732   -0.0300
     23 C23       -14.2192   -1.8833   48.2489 C.2     1  ZINC000937331732   -0.0200
     24 N24       -14.0505   -1.7497   49.5857 N.pl3   1  ZINC000937331732   -0.5200
     25 C25       -14.2555   -2.7750   53.9387 C.3     1  ZINC000937331732    0.1000
     26 H26       -14.4282   -4.7554   56.1314 H       1  ZINC000937331732    0.0700
     27 H27       -13.7820   -5.2649   54.5531 H       1  ZINC000937331732    0.0800
     28 H28       -12.9870   -5.7973   56.0541 H       1  ZINC000937331732    0.0800
     29 H29       -12.5789   -4.7589   58.0904 H       1  ZINC000937331732    0.1300
     30 H30       -11.2297   -5.5346   57.2265 H       1  ZINC000937331732    0.1300
     31 H31        -7.8700   -3.9689   60.2405 H       1  ZINC000937331732    0.2300
     32 H32        -8.5926   -2.0293   61.7181 H       1  ZINC000937331732    0.1000
     33 H33        -9.6932   -0.9141   60.8735 H       1  ZINC000937331732    0.0800
     34 H34       -10.3372   -2.0648   62.0692 H       1  ZINC000937331732    0.0800
     35 H35       -10.9705   -2.9140   53.2495 H       1  ZINC000937331732    0.0900
     36 H36       -12.0315   -4.3541   53.0916 H       1  ZINC000937331732    0.0800
     37 H37       -12.4645   -1.5314   51.9698 H       1  ZINC000937331732    0.0800
     38 H38       -12.6298   -3.0993   51.1215 H       1  ZINC000937331732    0.1100
     39 H39       -15.7230   -2.9540   47.1042 H       1  ZINC000937331732    0.1800
     40 H40       -13.5994   -1.4500   47.4779 H       1  ZINC000937331732    0.1900
     41 H41       -13.3489   -1.2491   50.0307 H       1  ZINC000937331732    0.4300
     42 H42       -14.7677   -3.6991   54.2067 H       1  ZINC000937331732    0.0800
     43 H43       -14.7804   -1.9205   54.3658 H       1  ZINC000937331732    0.0800
@<TRIPOS>BOND
     1     1     2    1
     2     1    26    1
     3     1    27    1
     4     1    28    1
     5     2     3   am
     6     2    13    1
     7     3     4    2
     8     3     5    1
     9     5     6    1
    10     5    29    1
    11     5    30    1
    12     6    11   am
    13     6     7    1
    14     7     8    2
    15     8     9    1
    16     8    31    1
    17     9    10    1
    18     9    11   am
    19    10    32    1
    20    10    33    1
    21    10    34    1
    22    11    12    2
    23    13    14    1
    24    13    25    1
    25    13    15    1
    26    15    16    1
    27    15    35    1
    28    15    36    1
    29    16    17    1
    30    16    37    1
    31    16    38    1
    32    17    18   am
    33    17    25    1
    34    18    19    2
    35    18    20    1
    36    20    24    1
    37    20    21    2
    38    21    22    1
    39    22    23    2
    40    22    39    1
    41    23    24    1
    42    23    40    1
    43    24    41    1
    44    25    42    1
    45    25    43    1
@<TRIPOS>SUBSTRUCTURE
     1 ZINC000937331732        1 TEMP              0 ****  ****    0 ROOT


##########                                Name:    ZINC000124554441
##########                DOCK_Rotatable_Bonds:                   9
##########                         Heavy_Atoms:                  26
##########                    Molecular_Weight:             375.898
##########                DOCK_Rotatable_Bonds:                   9
##########                       Formal_Charge:         -0.00999991
##########                     HBond_Acceptors:                   6
##########                        HBond_Donors:                   1
##########                         Heavy_Atoms:                  26
##########                          Grid_Score:          -36.072418
##########                     Grid_vdw_energy:          -36.329414
##########                      Grid_es_energy:            0.256997
##########           Internal_energy_repulsive:           12.904010

@<TRIPOS>MOLECULE
ZINC000124554441
 52 53 1 0 0
SMALL
USER_CHARGES


@<TRIPOS>ATOM
      1 C1         -9.3849    0.0022   63.6549 C.3     1  ZINC000124554441   -0.1500
      2 C2        -10.2345    0.4972   62.4826 C.3     1  ZINC000124554441   -0.1300
      3 C3        -11.0570   -0.6649   61.9224 C.3     1  ZINC000124554441   -0.1200
      4 C4        -10.1660   -1.5418   61.0403 C.3     1  ZINC000124554441   -0.1200
      5 C5        -11.0315   -2.5557   60.2894 C.3     1  ZINC000124554441   -0.1300
      6 C6        -10.1388   -3.4432   59.4197 C.3     1  ZINC000124554441    0.1200
      7 N7        -10.8673   -3.8320   58.2097 N.am    1  ZINC000124554441   -0.7300
      8 C8        -10.9391   -2.9841   57.1644 C.2     1  ZINC000124554441    0.5200
      9 O9        -10.4017   -1.8986   57.2263 O.2     1  ZINC000124554441   -0.5300
     10 C10       -11.6869   -3.3849   55.9190 C.3     1  ZINC000124554441   -0.1200
     11 H11       -11.0855   -4.0892   55.3443 H       1  ZINC000124554441    0.1000
     12 C12       -13.0120   -4.0440   56.3087 C.3     1  ZINC000124554441   -0.1000
     13 C13       -13.7573   -4.4810   55.0455 C.3     1  ZINC000124554441   -0.1400
     14 C14       -14.0638   -3.2499   54.1867 C.3     1  ZINC000124554441    0.0900
     15 N15       -12.8096   -2.5293   53.9285 N.am    1  ZINC000124554441   -0.6000
     16 C16       -12.4368   -2.2294   52.6686 C.2     1  ZINC000124554441    0.5600
     17 O17       -13.1403   -2.5555   51.7327 O.2     1  ZINC000124554441   -0.5200
     18 C18       -11.1712   -1.5035   52.4248 C.ar    1  ZINC000124554441   -0.0900
     19 C19       -10.0302   -2.2038   52.0285 C.ar    1  ZINC000124554441   -0.0900
     20 C20        -8.8513   -1.5291   51.8012 C.ar    1  ZINC000124554441   -0.0600
     21 C21        -8.7962   -0.1435   51.9674 C.ar    1  ZINC000124554441    0.0100
     22 C22        -7.5706    0.5583   51.7312 C.1     1  ZINC000124554441    0.2400
     23 N23        -6.5981    1.1149   51.5436 N.1     1  ZINC000124554441   -0.3800
     24 C24        -9.9386    0.5583   52.3643 C.ar    1  ZINC000124554441    0.0000
     25 Cl25       -9.8718    2.2807   52.5709 Cl      1  ZINC000124554441   -0.0400
     26 C26       -11.1197   -0.1177   52.5856 C.ar    1  ZINC000124554441   -0.0600
     27 C27       -11.9692   -2.1416   55.0697 C.3     1  ZINC000124554441    0.1200
     28 H28       -10.0364   -0.3912   64.4352 H       1  ZINC000124554441    0.0500
     29 H29        -8.7142   -0.7849   63.3106 H       1  ZINC000124554441    0.0500
     30 H30        -8.7989    0.8301   64.0540 H       1  ZINC000124554441    0.0500
     31 H31       -10.9054    1.2843   62.8269 H       1  ZINC000124554441    0.0600
     32 H32        -9.5830    0.8906   61.7023 H       1  ZINC000124554441    0.0600
     33 H33       -11.4521   -1.2604   62.7455 H       1  ZINC000124554441    0.0600
     34 H34       -11.8827   -0.2727   61.3287 H       1  ZINC000124554441    0.0600
     35 H35        -9.6356   -0.9153   60.3231 H       1  ZINC000124554441    0.0700
     36 H36        -9.4451   -2.0705   61.6637 H       1  ZINC000124554441    0.0700
     37 H37       -11.5708   -3.1746   61.0065 H       1  ZINC000124554441    0.0700
     38 H38       -11.7446   -2.0270   59.6570 H       1  ZINC000124554441    0.0700
     39 H39        -9.2399   -2.8929   59.1416 H       1  ZINC000124554441    0.0700
     40 H40        -9.8596   -4.3364   59.9785 H       1  ZINC000124554441    0.0700
     41 H41       -11.2981   -4.6998   58.1606 H       1  ZINC000124554441    0.4000
     42 H42       -12.8144   -4.9151   56.9334 H       1  ZINC000124554441    0.0800
     43 H43       -13.6230   -3.3313   56.8626 H       1  ZINC000124554441    0.0800
     44 H44       -13.1365   -5.1748   54.4785 H       1  ZINC000124554441    0.0700
     45 H45       -14.6900   -4.9711   55.3246 H       1  ZINC000124554441    0.0900
     46 H46       -14.5055   -3.5648   53.2413 H       1  ZINC000124554441    0.1000
     47 H47       -14.7574   -2.5978   54.7173 H       1  ZINC000124554441    0.0800
     48 H48       -10.0720   -3.2754   51.9005 H       1  ZINC000124554441    0.1500
     49 H49        -7.9692   -2.0715   51.4947 H       1  ZINC000124554441    0.1500
     50 H50       -12.0025    0.4236   52.8921 H       1  ZINC000124554441    0.1500
     51 H51       -12.4917   -1.3990   55.6727 H       1  ZINC000124554441    0.0800
     52 H52       -11.0296   -1.7250   54.7067 H       1  ZINC000124554441    0.1000
@<TRIPOS>BOND
     1     1     2    1
     2     1    28    1
     3     1    29    1
     4     1    30    1
     5     2     3    1
     6     2    31    1
     7     2    32    1
     8     3     4    1
     9     3    33    1
    10     3    34    1
    11     4     5    1
    12     4    35    1
    13     4    36    1
    14     5     6    1
    15     5    37    1
    16     5    38    1
    17     6     7    1
    18     6    39    1
    19     6    40    1
    20     7     8   am
    21     7    41    1
    22     8     9    2
    23     8    10    1
    24    10    11    1
    25    10    27    1
    26    10    12    1
    27    12    13    1
    28    12    42    1
    29    12    43    1
    30    13    14    1
    31    13    44    1
    32    13    45    1
    33    14    15    1
    34    14    46    1
    35    14    47    1
    36    15    16   am
    37    15    27    1
    38    16    17    2
    39    16    18    1
    40    18    26   ar
    41    18    19   ar
    42    19    20   ar
    43    19    48    1
    44    20    21   ar
    45    20    49    1
    46    21    22    1
    47    21    24   ar
    48    22    23    3
    49    24    25    1
    50    24    26   ar
    51    26    50    1
    52    27    51    1
    53    27    52    1
@<TRIPOS>SUBSTRUCTURE
     1 ZINC000124554441        1 TEMP              0 ****  ****    0 ROOT


##########                                Name:    ZINC000533131987
##########                DOCK_Rotatable_Bonds:                  11
##########                         Heavy_Atoms:                  30
##########                    Molecular_Weight:             419.403
##########                DOCK_Rotatable_Bonds:                  11
##########                       Formal_Charge:                0.01
##########                     HBond_Acceptors:                   9
##########                        HBond_Donors:                   3
##########                         Heavy_Atoms:                  30
##########                          Grid_Score:          -36.057613
##########                     Grid_vdw_energy:          -30.467279
##########                      Grid_es_energy:           -5.590335
##########           Internal_energy_repulsive:           28.261763

@<TRIPOS>MOLECULE
ZINC000533131987
 50 52 1 0 0
SMALL
USER_CHARGES


@<TRIPOS>ATOM
      1 O1        -11.6411   -1.6472   60.8465 O.2     1  ZINC000533131987   -0.5700
      2 C2        -10.4452   -1.7442   61.0435 C.2     1  ZINC000533131987    0.7100
      3 N3         -9.8892   -1.1517   62.1188 N.am    1  ZINC000533131987   -0.7400
      4 C4        -10.7247   -0.3858   63.0469 C.3     1  ZINC000533131987    0.1400
      5 C5        -10.4425    1.1079   62.8734 C.3     1  ZINC000533131987   -0.0900
      6 H6         -9.3857    1.2544   62.6499 H       1  ZINC000533131987    0.0900
      7 C7        -11.2880    1.6563   61.7223 C.3     1  ZINC000533131987    0.0800
      8 O8        -10.5107    1.6669   60.5233 O.3     1  ZINC000533131987   -0.5600
      9 C9        -10.7979    1.8475   64.1648 C.3     1  ZINC000533131987   -0.0900
     10 C10       -10.0316    1.2468   65.3150 C.ar    1  ZINC000533131987    0.0000
     11 C11        -8.7216    0.8435   65.1369 C.ar    1  ZINC000533131987   -0.1100
     12 C12        -8.0186    0.2923   66.1921 C.ar    1  ZINC000533131987   -0.0800
     13 C13        -8.6255    0.1450   67.4251 C.ar    1  ZINC000533131987   -0.1300
     14 C14        -9.9356    0.5491   67.6034 C.ar    1  ZINC000533131987   -0.0700
     15 C15       -10.6371    1.1041   66.5497 C.ar    1  ZINC000533131987   -0.1700
     16 C16       -12.0650    1.5448   66.7441 C.3     1  ZINC000533131987    0.5100
     17 F17       -12.4119    1.4204   68.0936 F       1  ZINC000533131987   -0.1800
     18 F18       -12.1988    2.8803   66.3494 F       1  ZINC000533131987   -0.1700
     19 F19       -12.9101    0.7428   65.9695 F       1  ZINC000533131987   -0.1800
     20 N20        -9.6766   -2.4488   60.1897 N.am    1  ZINC000533131987   -0.6900
     21 C21       -10.2541   -3.0642   59.0730 C.ar    1  ZINC000533131987    0.1600
     22 C22       -10.2774   -4.4502   58.9781 C.ar    1  ZINC000533131987   -0.1000
     23 C23       -10.8466   -5.0629   57.8772 C.ar    1  ZINC000533131987   -0.1000
     24 C24       -11.3953   -4.3021   56.8653 C.ar    1  ZINC000533131987   -0.1000
     25 C25       -11.3767   -2.9087   56.9512 C.ar    1  ZINC000533131987    0.0000
     26 C26       -11.9643   -2.0910   55.8687 C.2     1  ZINC000533131987    0.2300
     27 N27       -12.5933   -0.9501   56.0255 N.2     1  ZINC000533131987   -0.4700
     28 C28       -12.9822   -0.5056   54.8210 C.2     1  ZINC000533131987   -0.0400
     29 C29       -12.5791   -1.4012   53.9012 C.2     1  ZINC000533131987   -0.0700
     30 O30       -11.9387   -2.3886   54.5580 O.3     1  ZINC000533131987   -0.2000
     31 C31       -10.8078   -2.2909   58.0644 C.ar    1  ZINC000533131987   -0.1000
     32 H32        -8.9358   -1.2324   62.2781 H       1  ZINC000533131987    0.4000
     33 H33       -11.7759   -0.5837   62.8374 H       1  ZINC000533131987    0.0700
     34 H34       -10.4963   -0.6822   64.0708 H       1  ZINC000533131987    0.0800
     35 H35       -12.1643    1.0235   61.5817 H       1  ZINC000533131987    0.0400
     36 H36       -11.6071    2.6716   61.9575 H       1  ZINC000533131987    0.0600
     37 H37        -9.7975    2.3201   60.5226 H       1  ZINC000533131987    0.3800
     38 H38       -10.5357    2.9007   64.0642 H       1  ZINC000533131987    0.0800
     39 H39       -11.8675    1.7557   64.3535 H       1  ZINC000533131987    0.0900
     40 H40        -8.2473    0.9586   64.1735 H       1  ZINC000533131987    0.1300
     41 H41        -6.9951   -0.0235   66.0528 H       1  ZINC000533131987    0.1300
     42 H42        -8.0765   -0.2863   68.2492 H       1  ZINC000533131987    0.1300
     43 H43       -10.4100    0.4337   68.5667 H       1  ZINC000533131987    0.1300
     44 H44        -8.7232   -2.5296   60.3490 H       1  ZINC000533131987    0.4100
     45 H45        -9.8492   -5.0510   59.7669 H       1  ZINC000533131987    0.1500
     46 H46       -10.8616   -6.1406   57.8088 H       1  ZINC000533131987    0.1400
     47 H47       -11.8386   -4.7844   56.0067 H       1  ZINC000533131987    0.1300
     48 H48       -13.5229    0.4084   54.6244 H       1  ZINC000533131987    0.1900
     49 H49       -12.7359   -1.3384   52.8346 H       1  ZINC000533131987    0.2200
     50 H50       -10.7905   -1.2135   58.1364 H       1  ZINC000533131987    0.1400
@<TRIPOS>BOND
     1     1     2    2
     2     2     3   am
     3     2    20   am
     4     3     4    1
     5     3    32    1
     6     4     5    1
     7     4    33    1
     8     4    34    1
     9     5     6    1
    10     5     7    1
    11     5     9    1
    12     7     8    1
    13     7    35    1
    14     7    36    1
    15     8    37    1
    16     9    10    1
    17     9    38    1
    18     9    39    1
    19    10    15   ar
    20    10    11   ar
    21    11    12   ar
    22    11    40    1
    23    12    13   ar
    24    12    41    1
    25    13    14   ar
    26    13    42    1
    27    14    15   ar
    28    14    43    1
    29    15    16    1
    30    16    17    1
    31    16    18    1
    32    16    19    1
    33    20    21    1
    34    20    44    1
    35    21    31   ar
    36    21    22   ar
    37    22    23   ar
    38    22    45    1
    39    23    24   ar
    40    23    46    1
    41    24    25   ar
    42    24    47    1
    43    25    26    1
    44    25    31   ar
    45    26    30    1
    46    26    27    2
    47    27    28    1
    48    28    29    2
    49    28    48    1
    50    29    30    1
    51    29    49    1
    52    31    50    1
@<TRIPOS>SUBSTRUCTURE
     1 ZINC000533131987        1 TEMP              0 ****  ****    0 ROOT


##########                                Name:     oleObject15.pdb
##########                DOCK_Rotatable_Bonds:                   9
##########                         Heavy_Atoms:                  29
##########                    Molecular_Weight:             395.545
##########                DOCK_Rotatable_Bonds:                   9
##########                       Formal_Charge:         0.000700183
##########                     HBond_Acceptors:                   5
##########                        HBond_Donors:                   1
##########                         Heavy_Atoms:                  29
##########                          Grid_Score:          -36.043083
##########                     Grid_vdw_energy:          -35.876976
##########                      Grid_es_energy:           -0.166108
##########           Internal_energy_repulsive:           11.373673

@<TRIPOS>MOLECULE
oleObject15.pdb
 62 64 1 0 0
SMALL
NO_CHARGES


@<TRIPOS>ATOM
      1 O         -11.6369   -3.9640   55.0565 O.3     1  UNL        -0.3745
      2 C         -12.5049   -4.3648   56.1407 C.3     1  UNL         0.0600
      3 C         -11.6324   -4.9160   57.2924 C.3     1  UNL         0.0217
      4 N         -10.7196   -3.9220   57.9040 N.4     1  UNL        -0.3010
      5 C         -11.2177   -2.5276   57.8797 C.3     1  UNL        -0.0010
      6 C         -10.1637   -1.5319   58.4109 C.3     1  UNL        -0.0289
      7 C          -9.6339   -1.9096   59.8151 C.3     1  UNL         0.0382
      8 C          -9.2013   -3.3975   59.8372 C.3     1  UNL        -0.0289
      9 C         -10.2606   -4.3538   59.2412 C.3     1  UNL        -0.0010
     10 C         -10.6634   -1.5785   60.9240 C.2     1  UNL         0.2156
     11 O         -11.7303   -2.1595   61.0067 O.2     1  UNL        -0.2774
     12 N         -10.3582   -0.6257   61.8875 N.am    1  UNL        -0.3025
     13 C         -11.2023   -0.1792   63.0118 C.3     1  UNL         0.0900
     14 C         -10.4003    0.4770   64.1341 C.ar    1  UNL        -0.0217
     15 C         -11.0230    1.3144   65.0816 C.ar    1  UNL        -0.0568
     16 C         -10.2686    1.9199   66.0998 C.ar    1  UNL        -0.0619
     17 C          -8.8862    1.6907   66.1814 C.ar    1  UNL        -0.0622
     18 C          -8.2596    0.8532   65.2452 C.ar    1  UNL        -0.0619
     19 C          -9.0144    0.2477   64.2273 C.ar    1  UNL        -0.0568
     20 C         -12.3263    0.7399   62.5428 C.ar    1  UNL         0.0652
     21 C         -13.6695    0.3114   62.5102 C.ar    1  UNL        -0.0383
     22 C         -14.6582    1.2010   62.0601 C.ar    1  UNL        -0.0588
     23 C         -14.2696    2.4878   61.6569 C.ar    1  UNL        -0.0438
     24 C         -12.9086    2.8325   61.7197 C.ar    1  UNL         0.0272
     25 N         -11.9577    1.9794   62.1516 N.ar    1  UNL        -0.2590
     26 C         -12.1986   -3.3036   53.8976 C.3     1  UNL         0.0599
     27 C         -12.5598   -1.8404   54.2571 C.3     1  UNL        -0.0364
     28 C         -11.0723   -3.3247   52.8396 C.3     1  UNL        -0.0364
     29 C         -13.4295   -4.0905   53.3821 C.3     1  UNL        -0.0364
     30 H         -13.1904   -5.1539   55.8092 H       1  UNL         0.0581
     31 H         -13.1048   -3.5238   56.5050 H       1  UNL         0.0581
     32 H         -11.0406   -5.7486   56.8911 H       1  UNL         0.0455
     33 H         -12.2937   -5.3287   58.0648 H       1  UNL         0.0455
     34 H         -12.1307   -2.4490   58.4838 H       1  UNL         0.0431
     35 H         -11.4684   -2.2280   56.8555 H       1  UNL         0.0431
     36 H         -10.5857   -0.5203   58.4218 H       1  UNL         0.0288
     37 H          -9.3207   -1.5114   57.7080 H       1  UNL         0.0288
     38 H          -8.7237   -1.3292   59.9876 H       1  UNL         0.0402
     39 H          -8.9570   -3.7033   60.8624 H       1  UNL         0.0288
     40 H          -8.2787   -3.5020   59.2515 H       1  UNL         0.0288
     41 H         -11.1187   -4.4171   59.9220 H       1  UNL         0.0431
     42 H          -9.8221   -5.3579   59.1755 H       1  UNL         0.0431
     43 H          -9.4123   -0.2672   61.8616 H       1  UNL         0.1504
     44 H         -11.6856   -1.0765   63.4189 H       1  UNL         0.0624
     45 H         -12.0906    1.5062   65.0253 H       1  UNL         0.0626
     46 H         -10.7551    2.5678   66.8233 H       1  UNL         0.0623
     47 H          -8.3025    2.1594   66.9685 H       1  UNL         0.0623
     48 H          -7.1903    0.6728   65.3085 H       1  UNL         0.0623
     49 H          -8.5200   -0.3998   63.5084 H       1  UNL         0.0626
     50 H         -13.9423   -0.6907   62.8268 H       1  UNL         0.0643
     51 H         -15.7011    0.8993   62.0242 H       1  UNL         0.0624
     52 H         -15.0055    3.2036   61.3026 H       1  UNL         0.0639
     53 H         -12.5687    3.8215   61.4146 H       1  UNL         0.0840
     54 H         -11.7134   -1.3380   54.7429 H       1  UNL         0.0260
     55 H         -13.4218   -1.7915   54.9333 H       1  UNL         0.0260
     56 H         -12.8179   -1.2720   53.3548 H       1  UNL         0.0260
     57 H         -10.1818   -2.7983   53.2066 H       1  UNL         0.0260
     58 H         -11.3948   -2.8384   51.9103 H       1  UNL         0.0260
     59 H         -10.7809   -4.3554   52.5996 H       1  UNL         0.0260
     60 H         -14.2716   -4.0238   54.0820 H       1  UNL         0.0260
     61 H         -13.1838   -5.1507   53.2400 H       1  UNL         0.0260
     62 H         -13.7696   -3.6903   52.4186 H       1  UNL         0.0260
@<TRIPOS>BOND
     1     1     2    1
     2     1    26    1
     3     2     3    1
     4     2    30    1
     5     2    31    1
     6     3     4    1
     7     3    32    1
     8     3    33    1
     9     4     5    1
    10     4     9    1
    11     5     6    1
    12     5    34    1
    13     5    35    1
    14     6     7    1
    15     6    36    1
    16     6    37    1
    17     7     8    1
    18     7    10    1
    19     7    38    1
    20     8     9    1
    21     8    39    1
    22     8    40    1
    23     9    41    1
    24     9    42    1
    25    10    11    2
    26    10    12   am
    27    12    13    1
    28    12    43    1
    29    13    14    1
    30    13    20    1
    31    13    44    1
    32    14    15   ar
    33    14    19   ar
    34    15    16   ar
    35    15    45    1
    36    16    17   ar
    37    16    46    1
    38    17    18   ar
    39    17    47    1
    40    18    19   ar
    41    18    48    1
    42    19    49    1
    43    20    21   ar
    44    20    25   ar
    45    21    22   ar
    46    21    50    1
    47    22    23   ar
    48    22    51    1
    49    23    24   ar
    50    23    52    1
    51    24    25   ar
    52    24    53    1
    53    26    27    1
    54    26    28    1
    55    26    29    1
    56    27    54    1
    57    27    55    1
    58    27    56    1
    59    28    57    1
    60    28    58    1
    61    28    59    1
    62    29    60    1
    63    29    61    1
    64    29    62    1
@<TRIPOS>SUBSTRUCTURE
     1 UNL         1 TEMP              0 ****  ****    0 ROOT


##########                                Name:    ZINC000957079511
##########                DOCK_Rotatable_Bonds:                   8
##########                         Heavy_Atoms:                  25
##########                    Molecular_Weight:             362.453
##########                DOCK_Rotatable_Bonds:                   8
##########                       Formal_Charge:        -4.32134e-07
##########                     HBond_Acceptors:                   8
##########                        HBond_Donors:                   2
##########                         Heavy_Atoms:                  25
##########                          Grid_Score:          -36.030247
##########                     Grid_vdw_energy:          -34.479774
##########                      Grid_es_energy:           -1.550473
##########           Internal_energy_repulsive:           12.529731

@<TRIPOS>MOLECULE
ZINC000957079511
 47 49 1 0 0
SMALL
USER_CHARGES


@<TRIPOS>ATOM
      1 C1         -9.1313   -0.0594   67.4833 C.3     1  ZINC000957079511   -0.0700
      2 C2         -9.9027    0.8173   66.5307 C.2     1  ZINC000957079511    0.0300
      3 C3         -9.9221    0.7028   65.1891 C.2     1  ZINC000957079511   -0.0200
      4 C4         -9.1821   -0.3182   64.3639 C.3     1  ZINC000957079511   -0.0600
      5 C5        -10.0645   -0.7875   63.2359 C.2     1  ZINC000957079511    0.5100
      6 O6        -11.2611   -0.5957   63.2820 O.2     1  ZINC000957079511   -0.5200
      7 N7         -9.5238   -1.4205   62.1760 N.am    1  ZINC000957079511   -0.7200
      8 C8        -10.3818   -1.8783   61.0803 C.3     1  ZINC000957079511    0.1400
      9 H9        -11.4031   -2.0367   61.4266 H       1  ZINC000957079511    0.1100
     10 C10        -9.8113   -3.1623   60.4277 C.3     1  ZINC000957079511    0.0800
     11 N11       -10.3519   -3.1606   59.0561 N.am    1  ZINC000957079511   -0.6200
     12 C12       -10.5200   -4.2473   58.2768 C.2     1  ZINC000957079511    0.5400
     13 O13       -10.2138   -5.3448   58.6925 O.2     1  ZINC000957079511   -0.5100
     14 C14       -11.0883   -4.0987   56.8890 C.3     1  ZINC000957079511    0.0500
     15 O15       -12.5088   -4.2465   56.9376 O.3     1  ZINC000957079511   -0.2800
     16 C16       -13.1823   -4.1414   55.7582 C.2     1  ZINC000957079511    0.1200
     17 C17       -14.5153   -4.1966   55.6833 C.2     1  ZINC000957079511   -0.3300
     18 S18       -15.0199   -4.0257   54.0072 S.3     1  ZINC000957079511    0.1300
     19 C19       -13.3464   -3.8845   53.4850 C.2     1  ZINC000957079511   -0.1800
     20 C20       -12.5378   -3.9630   54.5435 C.2     1  ZINC000957079511   -0.1400
     21 C21       -10.6780   -1.7773   58.6795 C.3     1  ZINC000957079511    0.1100
     22 C22       -10.3458   -0.8814   59.8920 C.3     1  ZINC000957079511   -0.1100
     23 H23        -9.3533   -0.4429   59.7871 H       1  ZINC000957079511    0.0900
     24 C24       -11.4029    0.2114   60.0632 C.3     1  ZINC000957079511   -0.1400
     25 N25       -10.7436    1.6916   64.7190 N.pl3   1  ZINC000957079511   -0.5600
     26 C26       -11.1979    2.3765   65.7905 C.2     1  ZINC000957079511    0.2000
     27 N27       -10.6948    1.8450   66.8709 N.2     1  ZINC000957079511   -0.4900
     28 H28        -9.7480   -0.9095   67.7751 H       1  ZINC000957079511    0.0700
     29 H29        -8.2257   -0.4184   66.9944 H       1  ZINC000957079511    0.0600
     30 H30        -8.8625    0.5155   68.3695 H       1  ZINC000957079511    0.0700
     31 H31        -8.2776    0.1318   63.9545 H       1  ZINC000957079511    0.1000
     32 H32        -8.9131   -1.1673   64.9922 H       1  ZINC000957079511    0.1200
     33 H33        -8.5665   -1.5729   62.1385 H       1  ZINC000957079511    0.4000
     34 H34        -8.7221   -3.1251   60.4062 H       1  ZINC000957079511    0.0800
     35 H35       -10.1510   -4.0457   60.9683 H       1  ZINC000957079511    0.0800
     36 H36       -10.8388   -3.1124   56.4980 H       1  ZINC000957079511    0.0900
     37 H37       -10.6653   -4.8649   56.2393 H       1  ZINC000957079511    0.0900
     38 H38       -15.1812   -4.3269   56.5236 H       1  ZINC000957079511    0.1700
     39 H39       -13.0228   -3.7503   52.4635 H       1  ZINC000957079511    0.1800
     40 H40       -11.4629   -3.9001   54.4596 H       1  ZINC000957079511    0.1500
     41 H41       -10.0787   -1.4760   57.8203 H       1  ZINC000957079511    0.0800
     42 H42       -11.7385   -1.6985   58.4406 H       1  ZINC000957079511    0.0800
     43 H43       -12.3823   -0.2482   60.1961 H       1  ZINC000957079511    0.0600
     44 H44       -11.1628    0.8151   60.9385 H       1  ZINC000957079511    0.0600
     45 H45       -11.4164    0.8458   59.1769 H       1  ZINC000957079511    0.0700
     46 H46       -10.9591    1.8676   63.7898 H       1  ZINC000957079511    0.4200
     47 H47       -11.8696    3.2217   65.7589 H       1  ZINC000957079511    0.2100
@<TRIPOS>BOND
     1     1     2    1
     2     1    28    1
     3     1    29    1
     4     1    30    1
     5     2    27    1
     6     2     3    2
     7     3     4    1
     8     3    25    1
     9     4     5    1
    10     4    31    1
    11     4    32    1
    12     5     6    2
    13     5     7   am
    14     7     8    1
    15     7    33    1
    16     8     9    1
    17     8    22    1
    18     8    10    1
    19    10    11    1
    20    10    34    1
    21    10    35    1
    22    11    12   am
    23    11    21    1
    24    12    13    2
    25    12    14    1
    26    14    15    1
    27    14    36    1
    28    14    37    1
    29    15    16    1
    30    16    20    1
    31    16    17    2
    32    17    18    1
    33    17    38    1
    34    18    19    1
    35    19    20    2
    36    19    39    1
    37    20    40    1
    38    21    22    1
    39    21    41    1
    40    21    42    1
    41    22    23    1
    42    22    24    1
    43    24    43    1
    44    24    44    1
    45    24    45    1
    46    25    26    1
    47    25    46    1
    48    26    27    2
    49    26    47    1
@<TRIPOS>SUBSTRUCTURE
     1 ZINC000957079511        1 TEMP              0 ****  ****    0 ROOT


##########                                Name:     oleObject27.pdb
##########                DOCK_Rotatable_Bonds:                   9
##########                         Heavy_Atoms:                  35
##########                    Molecular_Weight:             513.466
##########                DOCK_Rotatable_Bonds:                   9
##########                       Formal_Charge:         0.000199873
##########                     HBond_Acceptors:                   8
##########                        HBond_Donors:                   1
##########                         Heavy_Atoms:                  35
##########                          Grid_Score:          -36.024605
##########                     Grid_vdw_energy:          -35.995422
##########                      Grid_es_energy:           -0.029181
##########           Internal_energy_repulsive:           27.841259

@<TRIPOS>MOLECULE
oleObject27.pdb
 65 68 1 0 0
SMALL
NO_CHARGES


@<TRIPOS>ATOM
      1 C         -10.4935    4.9264   49.7437 C.ar    1  UNL        -0.0620
      2 C         -10.8273    4.8464   51.1034 C.ar    1  UNL        -0.0590
      3 C         -10.2555    3.8580   51.9279 C.ar    1  UNL        -0.0456
      4 C          -9.3269    2.9383   51.3799 C.ar    1  UNL        -0.0187
      5 C          -9.0092    3.0245   50.0066 C.ar    1  UNL        -0.0565
      6 C          -9.5857    4.0119   49.1942 C.ar    1  UNL        -0.0619
      7 C          -8.6814    1.8476   52.2494 C.3     1  UNL         0.0921
      8 C          -7.8170    2.4241   53.3751 C.ar    1  UNL         0.0681
      9 C          -6.4654    2.7996   53.1718 C.ar    1  UNL        -0.0272
     10 C          -5.7419    3.3092   54.2665 C.ar    1  UNL        -0.0559
     11 C          -6.3748    3.4177   55.5134 C.ar    1  UNL        -0.0435
     12 C          -7.7112    3.0067   55.6272 C.ar    1  UNL         0.0272
     13 N          -8.4119    2.5185   54.5865 N.ar    1  UNL        -0.2587
     14 C          -5.7742    2.6575   51.8205 C.3     1  UNL        -0.0379
     15 N          -9.6603    0.8959   52.7947 N.am    1  UNL        -0.2865
     16 C          -9.7085   -0.4441   52.4552 C.2     1  UNL         0.3014
     17 O          -8.9257   -0.9345   51.6585 O.2     1  UNL        -0.2541
     18 N         -10.7118   -1.1874   53.0799 N.am    1  UNL        -0.2833
     19 C         -10.8997   -2.6417   52.8245 C.3     1  UNL         0.0284
     20 C         -12.2547   -3.2192   53.3012 C.3     1  UNL         0.0142
     21 N         -12.6093   -2.7781   54.6614 N.4     1  UNL        -0.2979
     22 C         -12.6888   -1.3044   54.6908 C.3     1  UNL         0.0142
     23 C         -11.3480   -0.6395   54.3030 C.3     1  UNL         0.0284
     24 C         -11.7676   -3.4001   55.7118 C.3     1  UNL         0.0223
     25 C         -12.0489   -2.8476   57.1236 C.3     1  UNL         0.0661
     26 O         -10.9431   -2.0033   57.4889 O.3     1  UNL        -0.3432
     27 C         -10.5290   -1.8065   58.7922 C.ar    1  UNL         0.0937
     28 C          -9.6916   -2.7267   59.4586 C.ar    1  UNL        -0.0288
     29 C          -9.2935   -2.4881   60.7846 C.ar    1  UNL        -0.0408
     30 C          -9.7278   -1.3321   61.4521 C.ar    1  UNL         0.0422
     31 C         -10.5603   -0.4120   60.7961 C.ar    1  UNL        -0.0221
     32 C         -10.9600   -0.6477   59.4702 C.ar    1  UNL         0.0723
     33 CL        -12.0008    0.5215   58.6793 Cl      1  UNL        -0.0814
     34 CL         -9.2299   -1.0377   63.1045 Cl      1  UNL        -0.0843
     35 C         -10.6658    3.8053   53.3958 C.3     1  UNL        -0.0394
     36 H         -10.9420    5.6919   49.1169 H       1  UNL         0.0623
     37 H         -11.5377    5.5568   51.5168 H       1  UNL         0.0626
     38 H          -8.3159    2.3190   49.5582 H       1  UNL         0.0627
     39 H          -9.3301    4.0658   48.1400 H       1  UNL         0.0623
     40 H          -8.0332    1.2621   51.5908 H       1  UNL         0.0625
     41 H          -4.7047    3.6124   54.1551 H       1  UNL         0.0627
     42 H          -5.8401    3.8063   56.3750 H       1  UNL         0.0639
     43 H          -8.2373    3.0696   56.5790 H       1  UNL         0.0840
     44 H          -5.8712    1.6358   51.4322 H       1  UNL         0.0280
     45 H          -4.7019    2.8798   51.8890 H       1  UNL         0.0280
     46 H          -6.2061    3.3447   51.0826 H       1  UNL         0.0280
     47 H         -10.3660    1.2519   53.4239 H       1  UNL         0.1521
     48 H         -10.0868   -3.1811   53.3272 H       1  UNL         0.0484
     49 H         -10.8183   -2.8442   51.7495 H       1  UNL         0.0484
     50 H         -12.2238   -4.3151   53.2503 H       1  UNL         0.0447
     51 H         -13.0343   -2.8845   52.6044 H       1  UNL         0.0447
     52 H         -13.0075   -0.9437   55.6758 H       1  UNL         0.0447
     53 H         -13.4512   -0.9770   53.9721 H       1  UNL         0.0447
     54 H         -10.6396   -0.7542   55.1332 H       1  UNL         0.0484
     55 H         -11.5256    0.4354   54.1694 H       1  UNL         0.0484
     56 H         -10.7031   -3.2620   55.4842 H       1  UNL         0.0455
     57 H         -11.9603   -4.4806   55.7309 H       1  UNL         0.0455
     58 H         -12.1425   -3.6812   57.8314 H       1  UNL         0.0586
     59 H         -12.9794   -2.2670   57.1241 H       1  UNL         0.0586
     60 H          -9.3436   -3.6264   58.9618 H       1  UNL         0.0652
     61 H          -8.6489   -3.1995   61.2931 H       1  UNL         0.0639
     62 H         -10.8958    0.4824   61.3136 H       1  UNL         0.0655
     63 H         -11.4645    4.5232   53.6201 H       1  UNL         0.0280
     64 H          -9.8185    4.0439   54.0508 H       1  UNL         0.0280
     65 H         -11.0393    2.8102   53.6669 H       1  UNL         0.0280
@<TRIPOS>BOND
     1     1     2   ar
     2     1     6   ar
     3     1    36    1
     4     2     3   ar
     5     2    37    1
     6     3     4   ar
     7     3    35    1
     8     4     5   ar
     9     4     7    1
    10     5     6   ar
    11     5    38    1
    12     6    39    1
    13     7     8    1
    14     7    15    1
    15     7    40    1
    16     8     9   ar
    17     8    13   ar
    18     9    10   ar
    19     9    14    1
    20    10    11   ar
    21    10    41    1
    22    11    12   ar
    23    11    42    1
    24    12    13   ar
    25    12    43    1
    26    14    44    1
    27    14    45    1
    28    14    46    1
    29    15    16   am
    30    15    47    1
    31    16    17    2
    32    16    18   am
    33    18    19    1
    34    18    23    1
    35    19    20    1
    36    19    48    1
    37    19    49    1
    38    20    21    1
    39    20    50    1
    40    20    51    1
    41    21    22    1
    42    21    24    1
    43    22    23    1
    44    22    52    1
    45    22    53    1
    46    23    54    1
    47    23    55    1
    48    24    25    1
    49    24    56    1
    50    24    57    1
    51    25    26    1
    52    25    58    1
    53    25    59    1
    54    26    27    1
    55    27    28   ar
    56    27    32   ar
    57    28    29   ar
    58    28    60    1
    59    29    30   ar
    60    29    61    1
    61    30    31   ar
    62    30    34    1
    63    31    32   ar
    64    31    62    1
    65    32    33    1
    66    35    63    1
    67    35    64    1
    68    35    65    1
@<TRIPOS>SUBSTRUCTURE
     1 UNL         1 TEMP              0 ****  ****    0 ROOT


##########                                Name:    ZINC000182378855
##########                DOCK_Rotatable_Bonds:                   8
##########                         Heavy_Atoms:                  27
##########                    Molecular_Weight:              394.83
##########                DOCK_Rotatable_Bonds:                   8
##########                       Formal_Charge:          -0.0200001
##########                     HBond_Acceptors:                   8
##########                        HBond_Donors:                   1
##########                         Heavy_Atoms:                  27
##########                          Grid_Score:          -36.024292
##########                     Grid_vdw_energy:          -36.275223
##########                      Grid_es_energy:            0.250929
##########           Internal_energy_repulsive:            9.349605

@<TRIPOS>MOLECULE
ZINC000182378855
 47 49 1 0 0
SMALL
USER_CHARGES


@<TRIPOS>ATOM
      1 C1         -3.6417    1.8573   49.3722 C.3     1  ZINC000182378855    0.0300
      2 O2         -4.6533    1.8296   50.3812 O.3     1  ZINC000182378855   -0.3900
      3 C3         -5.6028    0.7735   50.2233 C.3     1  ZINC000182378855    0.0600
      4 C4         -6.6913    0.9025   51.2907 C.3     1  ZINC000182378855    0.0700
      5 O5         -7.5592   -0.2309   51.2256 O.3     1  ZINC000182378855   -0.2900
      6 C6         -8.5579   -0.2956   52.1418 C.ar    1  ZINC000182378855    0.3300
      7 C7         -9.3967   -1.4017   52.1657 C.ar    1  ZINC000182378855   -0.1300
      8 C8        -10.4198   -1.4537   53.1143 C.ar    1  ZINC000182378855   -0.0600
      9 C9        -11.3393   -2.6137   53.1787 C.2     1  ZINC000182378855    0.5600
     10 O10       -11.3559   -3.4266   52.2758 O.2     1  ZINC000182378855   -0.5200
     11 N11       -12.1573   -2.7671   54.2387 N.am    1  ZINC000182378855   -0.7100
     12 C12       -13.0653   -3.9151   54.3033 C.3     1  ZINC000182378855    0.1200
     13 H13       -12.5979   -4.7957   53.8627 H       1  ZINC000182378855    0.1100
     14 C14       -14.3964   -3.5934   53.5876 C.3     1  ZINC000182378855   -0.1700
     15 C15       -15.4602   -3.7159   54.7010 C.3     1  ZINC000182378855    0.0400
     16 O16       -14.7351   -3.4944   55.9302 O.3     1  ZINC000182378855   -0.3600
     17 C17       -13.4824   -4.1938   55.7643 C.3     1  ZINC000182378855    0.1100
     18 H18       -13.6211   -5.2634   55.9218 H       1  ZINC000182378855    0.1000
     19 C19       -12.4487   -3.6517   56.7175 C.ar    1  ZINC000182378855   -0.0500
     20 C20       -11.4811   -4.4908   57.2372 C.ar    1  ZINC000182378855   -0.1100
     21 C21       -10.5284   -3.9940   58.1075 C.ar    1  ZINC000182378855   -0.0800
     22 C22       -10.5496   -2.6591   58.4676 C.ar    1  ZINC000182378855   -0.0700
     23 Cl23       -9.3576   -2.0366   59.5653 Cl      1  ZINC000182378855   -0.0400
     24 C24       -11.5230   -1.8185   57.9513 C.ar    1  ZINC000182378855    0.1200
     25 F25       -11.5451   -0.5140   58.3017 F       1  ZINC000182378855   -0.1200
     26 C26       -12.4723   -2.3167   57.0759 C.ar    1  ZINC000182378855   -0.1300
     27 C27       -10.5532   -0.3810   54.0029 C.ar    1  ZINC000182378855   -0.1900
     28 C28        -9.6763    0.6809   53.9107 C.ar    1  ZINC000182378855    0.1400
     29 N29        -8.7179    0.6930   53.0048 N.ar    1  ZINC000182378855   -0.5200
     30 H30        -4.1068    1.9864   48.3949 H       1  ZINC000182378855    0.0400
     31 H31        -2.9609    2.6869   49.5630 H       1  ZINC000182378855    0.0900
     32 H32        -3.0858    0.9199   49.3891 H       1  ZINC000182378855    0.0400
     33 H33        -6.0552    0.8366   49.2336 H       1  ZINC000182378855    0.0600
     34 H34        -5.0994   -0.1871   50.3321 H       1  ZINC000182378855    0.0700
     35 H35        -6.2294    0.9503   52.2769 H       1  ZINC000182378855    0.0800
     36 H36        -7.2669    1.8114   51.1148 H       1  ZINC000182378855    0.0800
     37 H37        -9.2601   -2.2091   51.4615 H       1  ZINC000182378855    0.1600
     38 H38       -12.1450   -2.1175   54.9589 H       1  ZINC000182378855    0.4000
     39 H39       -14.3788   -2.5803   53.1859 H       1  ZINC000182378855    0.0900
     40 H40       -14.5882   -4.3164   52.7949 H       1  ZINC000182378855    0.0900
     41 H41       -16.2318   -2.9567   54.5736 H       1  ZINC000182378855    0.1000
     42 H42       -15.9037   -4.7115   54.6942 H       1  ZINC000182378855    0.0700
     43 H43       -11.4668   -5.5345   56.9601 H       1  ZINC000182378855    0.1500
     44 H44        -9.7703   -4.6497   58.5094 H       1  ZINC000182378855    0.1500
     45 H45       -13.2312   -1.6625   56.6725 H       1  ZINC000182378855    0.1500
     46 H46       -11.3319   -0.3841   54.7512 H       1  ZINC000182378855    0.1400
     47 H47        -9.7736    1.5120   54.5935 H       1  ZINC000182378855    0.1700
@<TRIPOS>BOND
     1     1     2    1
     2     1    30    1
     3     1    31    1
     4     1    32    1
     5     2     3    1
     6     3     4    1
     7     3    33    1
     8     3    34    1
     9     4     5    1
    10     4    35    1
    11     4    36    1
    12     5     6    1
    13     6    29   ar
    14     6     7   ar
    15     7     8   ar
    16     7    37    1
    17     8     9    1
    18     8    27   ar
    19     9    10    2
    20     9    11   am
    21    11    12    1
    22    11    38    1
    23    12    13    1
    24    12    17    1
    25    12    14    1
    26    14    15    1
    27    14    39    1
    28    14    40    1
    29    15    16    1
    30    15    41    1
    31    15    42    1
    32    16    17    1
    33    17    18    1
    34    17    19    1
    35    19    26   ar
    36    19    20   ar
    37    20    21   ar
    38    20    43    1
    39    21    22   ar
    40    21    44    1
    41    22    23    1
    42    22    24   ar
    43    24    25    1
    44    24    26   ar
    45    26    45    1
    46    27    28   ar
    47    27    46    1
    48    28    29   ar
    49    28    47    1
@<TRIPOS>SUBSTRUCTURE
     1 ZINC000182378855        1 TEMP              0 ****  ****    0 ROOT


##########                                Name:    ZINC000744839011
##########                DOCK_Rotatable_Bonds:                  10
##########                         Heavy_Atoms:                  24
##########                    Molecular_Weight:              378.83
##########                DOCK_Rotatable_Bonds:                  10
##########                       Formal_Charge:           0.0300002
##########                     HBond_Acceptors:                   9
##########                        HBond_Donors:                   0
##########                         Heavy_Atoms:                  24
##########                          Grid_Score:          -36.010754
##########                     Grid_vdw_energy:          -35.432411
##########                      Grid_es_energy:           -0.578341
##########           Internal_energy_repulsive:           12.591277

@<TRIPOS>MOLECULE
ZINC000744839011
 43 43 1 0 0
SMALL
USER_CHARGES


@<TRIPOS>ATOM
      1 C1         -9.5402   -2.4881   60.9306 C.3     1  ZINC000744839011    0.0400
      2 O2         -9.9691   -1.4723   59.9857 O.3     1  ZINC000744839011   -0.3600
      3 C3        -10.1674   -1.8659   58.7124 C.2     1  ZINC000744839011    0.5100
      4 O4         -9.4401   -1.4559   57.8296 O.2     1  ZINC000744839011   -0.5000
      5 C5        -11.2670   -2.7942   58.3903 C.ar    1  ZINC000744839011   -0.1600
      6 C6        -10.9889   -4.1265   58.0728 C.ar    1  ZINC000744839011   -0.0100
      7 C7        -12.0184   -4.9907   57.7729 C.ar    1  ZINC000744839011   -0.2100
      8 C8        -13.3328   -4.5401   57.7857 C.ar    1  ZINC000744839011    0.1800
      9 O9        -14.3444   -5.3953   57.4895 O.3     1  ZINC000744839011   -0.2900
     10 C10       -14.2471   -6.1133   56.2578 C.3     1  ZINC000744839011    0.0500
     11 C11       -14.3355   -5.1320   55.0872 C.3     1  ZINC000744839011    0.0600
     12 O12       -13.0107   -4.9199   54.5323 O.3     1  ZINC000744839011   -0.3400
     13 C13       -12.9343   -4.2285   53.3843 C.2     1  ZINC000744839011    0.5000
     14 O14       -13.9445   -3.8709   52.8262 O.2     1  ZINC000744839011   -0.4900
     15 C15       -11.5887   -3.8982   52.7916 C.3     1  ZINC000744839011   -0.6400
     16 S16       -11.6554   -2.2600   52.0157 S.o2    1  ZINC000744839011    2.4400
     17 O17       -10.3337   -1.8678   51.6715 O.2     1  ZINC000744839011   -0.9100
     18 O18       -12.6585   -2.2761   51.0093 O.2     1  ZINC000744839011   -0.9100
     19 C19       -12.2287   -1.2191   53.3863 C.3     1  ZINC000744839011   -0.5700
     20 C20       -11.2354   -1.3110   54.5465 C.3     1  ZINC000744839011   -0.1500
     21 C21       -12.3305    0.2332   52.9158 C.3     1  ZINC000744839011   -0.1500
     22 C22       -13.6147   -3.2149   58.1017 C.ar    1  ZINC000744839011   -0.0800
     23 Cl23      -15.2590   -2.6580   58.1166 Cl      1  ZINC000744839011   -0.0400
     24 C24       -12.5910   -2.3453   58.4075 C.ar    1  ZINC000744839011   -0.0100
     25 H25       -10.2905   -3.2771   60.9814 H       1  ZINC000744839011    0.0700
     26 H26        -8.5901   -2.9106   60.6034 H       1  ZINC000744839011    0.0700
     27 H27        -9.4179   -2.0390   61.9162 H       1  ZINC000744839011    0.1100
     28 H28        -9.9677   -4.4779   58.0620 H       1  ZINC000744839011    0.1500
     29 H29       -11.8039   -6.0203   57.5271 H       1  ZINC000744839011    0.1500
     30 H30       -13.2938   -6.6404   56.2188 H       1  ZINC000744839011    0.0900
     31 H31       -15.0631   -6.8327   56.1912 H       1  ZINC000744839011    0.1000
     32 H32       -14.9903   -5.5420   54.3182 H       1  ZINC000744839011    0.1100
     33 H33       -14.7385   -4.1822   55.4389 H       1  ZINC000744839011    0.0900
     34 H34       -10.8352   -3.8968   53.5793 H       1  ZINC000744839011    0.1700
     35 H35       -11.3288   -4.6452   52.0416 H       1  ZINC000744839011    0.1700
     36 H36       -13.2083   -1.5629   53.7186 H       1  ZINC000744839011    0.1400
     37 H37       -11.5799   -0.6856   55.3700 H       1  ZINC000744839011    0.0900
     38 H38       -11.1630   -2.3456   54.8816 H       1  ZINC000744839011    0.0700
     39 H39       -10.2559   -0.9671   54.2142 H       1  ZINC000744839011    0.0800
     40 H40       -13.0380    0.2986   52.0894 H       1  ZINC000744839011    0.0800
     41 H41       -12.6749    0.8587   53.7394 H       1  ZINC000744839011    0.0900
     42 H42       -11.3510    0.5770   52.5836 H       1  ZINC000744839011    0.0800
     43 H43       -12.8102   -1.3166   58.6527 H       1  ZINC000744839011    0.1600
@<TRIPOS>BOND
     1     1     2    1
     2     1    25    1
     3     1    26    1
     4     1    27    1
     5     2     3    1
     6     3     4    2
     7     3     5    1
     8     5    24   ar
     9     5     6   ar
    10     6     7   ar
    11     6    28    1
    12     7     8   ar
    13     7    29    1
    14     8     9    1
    15     8    22   ar
    16     9    10    1
    17    10    11    1
    18    10    30    1
    19    10    31    1
    20    11    12    1
    21    11    32    1
    22    11    33    1
    23    12    13    1
    24    13    14    2
    25    13    15    1
    26    15    16    1
    27    15    34    1
    28    15    35    1
    29    16    17    2
    30    16    18    2
    31    16    19    1
    32    19    20    1
    33    19    21    1
    34    19    36    1
    35    20    37    1
    36    20    38    1
    37    20    39    1
    38    21    40    1
    39    21    41    1
    40    21    42    1
    41    22    23    1
    42    22    24   ar
    43    24    43    1
@<TRIPOS>SUBSTRUCTURE
     1 ZINC000744839011        1 TEMP              0 ****  ****    0 ROOT


##########                                Name:    ZINC000503413572
##########                DOCK_Rotatable_Bonds:                   7
##########                         Heavy_Atoms:                  26
##########                    Molecular_Weight:             355.375
##########                DOCK_Rotatable_Bonds:                   7
##########                       Formal_Charge:        -1.71363e-07
##########                     HBond_Acceptors:                   9
##########                        HBond_Donors:                   1
##########                         Heavy_Atoms:                  26
##########                          Grid_Score:          -35.995968
##########                     Grid_vdw_energy:          -35.365887
##########                      Grid_es_energy:           -0.630080
##########           Internal_energy_repulsive:           10.093964

@<TRIPOS>MOLECULE
ZINC000503413572
 44 47 1 0 0
SMALL
USER_CHARGES


@<TRIPOS>ATOM
      1 C1        -13.3751   -1.6785   51.3565 C.3     1  ZINC000503413572   -0.1200
      2 C2        -13.1344   -2.5419   52.5679 C.ar    1  ZINC000503413572   -0.0200
      3 C3        -14.0981   -3.4423   52.9770 C.ar    1  ZINC000503413572   -0.1400
      4 C4        -13.8772   -4.2364   54.0902 C.ar    1  ZINC000503413572    0.1300
      5 F5        -14.8210   -5.1171   54.4887 F       1  ZINC000503413572   -0.1300
      6 C6        -12.6900   -4.1291   54.7946 C.ar    1  ZINC000503413572   -0.1400
      7 C7        -11.7237   -3.2296   54.3884 C.ar    1  ZINC000503413572   -0.0700
      8 C8        -11.9412   -2.4366   53.2701 C.ar    1  ZINC000503413572    0.1000
      9 N9        -10.9609   -1.5229   52.8556 N.pl3   1  ZINC000503413572   -0.3100
     10 C10        -9.8087   -1.8137   52.2138 C.2     1  ZINC000503413572    0.1100
     11 C11        -9.1624   -0.6280   52.0059 C.2     1  ZINC000503413572   -0.1000
     12 C12        -7.8589   -0.4624   51.3355 C.2     1  ZINC000503413572    0.6100
     13 O13        -7.2899   -1.4288   50.8655 O.2     1  ZINC000503413572   -0.5300
     14 N14        -7.2988    0.7599   51.2439 N.am    1  ZINC000503413572   -0.7200
     15 C15        -6.0050    0.9247   50.5766 C.3     1  ZINC000503413572    0.1100
     16 C16        -5.2830    2.1422   51.1573 C.3     1  ZINC000503413572    0.1000
     17 N17        -3.9167    2.1964   50.6312 N.pl3   1  ZINC000503413572   -0.4700
     18 C18        -3.3532    1.3481   49.7375 C.2     1  ZINC000503413572    0.1500
     19 N19        -2.1272    1.7503   49.5403 N.2     1  ZINC000503413572   -0.2900
     20 N20        -1.8937    2.7940   50.2543 N.2     1  ZINC000503413572   -0.2900
     21 C21        -2.9620    3.1086   50.9351 C.2     1  ZINC000503413572    0.2100
     22 C22        -3.1039    4.2658   51.8900 C.3     1  ZINC000503413572   -0.1000
     23 C23        -3.6484    3.9655   53.2879 C.3     1  ZINC000503413572   -0.1500
     24 C24        -2.1679    4.3024   53.0996 C.3     1  ZINC000503413572   -0.1600
     25 N25        -9.9151    0.3621   52.5156 N.2     1  ZINC000503413572   -0.2000
     26 N26       -10.9910   -0.1310   53.0226 N.2     1  ZINC000503413572   -0.0400
     27 H27       -12.9329   -2.1514   50.4796 H       1  ZINC000503413572    0.0900
     28 H28       -14.4476   -1.5588   51.2029 H       1  ZINC000503413572    0.0800
     29 H29       -12.9189   -0.7006   51.5108 H       1  ZINC000503413572    0.0700
     30 H30       -15.0248   -3.5270   52.4290 H       1  ZINC000503413572    0.1500
     31 H31       -12.5195   -4.7488   55.6626 H       1  ZINC000503413572    0.1500
     32 H32       -10.7980   -3.1458   54.9383 H       1  ZINC000503413572    0.1500
     33 H33        -9.4643   -2.7947   51.9215 H       1  ZINC000503413572    0.2100
     34 H34        -7.7521    1.5307   51.6199 H       1  ZINC000503413572    0.4100
     35 H35        -5.3985    0.0329   50.7347 H       1  ZINC000503413572    0.0800
     36 H36        -6.1634    1.0716   49.5081 H       1  ZINC000503413572    0.0800
     37 H37        -5.8170    3.0498   50.8758 H       1  ZINC000503413572    0.1100
     38 H38        -5.2509    2.0616   52.2438 H       1  ZINC000503413572    0.1100
     39 H39        -3.8297    0.4966   49.2748 H       1  ZINC000503413572    0.2200
     40 H40        -3.3781    5.2184   51.4367 H       1  ZINC000503413572    0.1200
     41 H41        -4.2809    4.7206   53.7546 H       1  ZINC000503413572    0.1100
     42 H42        -3.9039    2.9309   53.5170 H       1  ZINC000503413572    0.1100
     43 H43        -1.4494    3.4895   53.2049 H       1  ZINC000503413572    0.1000
     44 H44        -1.8264    5.2792   53.4423 H       1  ZINC000503413572    0.1100
@<TRIPOS>BOND
     1     1     2    1
     2     1    27    1
     3     1    28    1
     4     1    29    1
     5     2     8   ar
     6     2     3   ar
     7     3     4   ar
     8     3    30    1
     9     4     5    1
    10     4     6   ar
    11     6     7   ar
    12     6    31    1
    13     7     8   ar
    14     7    32    1
    15     8     9    1
    16     9    26    1
    17     9    10    1
    18    10    11    2
    19    10    33    1
    20    11    12    1
    21    11    25    1
    22    12    13    2
    23    12    14   am
    24    14    15    1
    25    14    34    1
    26    15    16    1
    27    15    35    1
    28    15    36    1
    29    16    17    1
    30    16    37    1
    31    16    38    1
    32    17    21    1
    33    17    18    1
    34    18    19    2
    35    18    39    1
    36    19    20    1
    37    20    21    2
    38    21    22    1
    39    22    24    1
    40    22    23    1
    41    22    40    1
    42    23    24    1
    43    23    41    1
    44    23    42    1
    45    24    43    1
    46    24    44    1
    47    25    26    2
@<TRIPOS>SUBSTRUCTURE
     1 ZINC000503413572        1 TEMP              0 ****  ****    0 ROOT


##########                                Name:    ZINC000266467123
##########                DOCK_Rotatable_Bonds:                   9
##########                         Heavy_Atoms:                  25
##########                    Molecular_Weight:             337.421
##########                DOCK_Rotatable_Bonds:                   9
##########                       Formal_Charge:                0.02
##########                     HBond_Acceptors:                   5
##########                        HBond_Donors:                   3
##########                         Heavy_Atoms:                  25
##########                          Grid_Score:          -35.972462
##########                     Grid_vdw_energy:          -35.759975
##########                      Grid_es_energy:           -0.212486
##########           Internal_energy_repulsive:           10.412506

@<TRIPOS>MOLECULE
ZINC000266467123
 48 50 1 0 0
SMALL
USER_CHARGES


@<TRIPOS>ATOM
      1 C1        -14.4191   -6.3453   56.7306 C.3     1  <0>        -0.1600
      2 C2        -14.2623   -4.8674   56.3673 C.3     1  <0>         0.1500
      3 H3        -15.2327   -4.3744   56.4237 H       1  <0>         0.1200
      4 N4        -13.7348   -4.7527   55.0053 N.am    1  <0>        -0.7300
      5 C5        -13.9829   -3.6458   54.2774 C.2     1  <0>         0.7100
      6 O6        -14.6434   -2.7419   54.7517 O.2     1  <0>        -0.5900
      7 N7        -13.4990   -3.5410   53.0240 N.am    1  <0>        -0.7100
      8 C8        -13.7673   -2.3372   52.2335 C.3     1  <0>         0.1100
      9 H9        -14.8180   -2.1375   52.0229 H       1  <0>         0.1400
     10 C10       -12.7466   -1.9551   51.1596 C.3     1  <0>        -0.1900
     11 C11       -12.8484   -1.1326   52.4467 C.3     1  <0>        -0.1500
     12 H12       -13.2942   -0.1405   52.3760 H       1  <0>         0.1200
     13 C13       -11.7188   -1.2772   53.4685 C.3     1  <0>        -0.0500
     14 C14       -10.4312   -0.7739   52.8686 C.ar    1  <0>        -0.0800
     15 C15       -10.0620    0.5480   53.0338 C.ar    1  <0>        -0.1100
     16 C16        -8.8810    1.0096   52.4836 C.ar    1  <0>        -0.1200
     17 C17        -8.0688    0.1495   51.7685 C.ar    1  <0>        -0.1200
     18 C18        -8.4375   -1.1727   51.6041 C.ar    1  <0>        -0.1200
     19 C19        -9.6165   -1.6355   52.1580 C.ar    1  <0>        -0.1200
     20 C20       -13.3086   -4.2114   57.3323 C.2     1  <0>         0.5100
     21 O21       -13.7152   -3.7889   58.3939 O.2     1  <0>        -0.5100
     22 N22       -12.0039   -4.0943   57.0155 N.am    1  <0>        -0.6700
     23 C23       -11.1183   -3.4852   57.9115 C.ar    1  <0>         0.1400
     24 C24       -10.9313   -2.1095   57.8781 C.ar    1  <0>        -0.1400
     25 C25       -10.0565   -1.5113   58.7639 C.ar    1  <0>        -0.1000
     26 C26        -9.3670   -2.2807   59.6829 C.ar    1  <0>        -0.1300
     27 C27        -9.5507   -3.6508   59.7185 C.ar    1  <0>        -0.1000
     28 C28       -10.4291   -4.2543   58.8399 C.ar    1  <0>        -0.1200
     29 H29       -14.8116   -6.4308   57.7438 H       1  <0>         0.0700
     30 H30       -15.1089   -6.8199   56.0325 H       1  <0>         0.0800
     31 H31       -13.4486   -6.8384   56.6740 H       1  <0>         0.0700
     32 H32       -13.2067   -5.4733   54.6274 H       1  <0>         0.4100
     33 H33       -12.9730   -4.2627   52.6453 H       1  <0>         0.4000
     34 H34       -11.8754   -2.5994   51.0414 H       1  <0>         0.1000
     35 H35       -13.1257   -1.5037   50.2428 H       1  <0>         0.1000
     36 H36       -11.9572   -0.6946   54.3584 H       1  <0>         0.0800
     37 H37       -11.6071   -2.3267   53.7406 H       1  <0>         0.0700
     38 H38       -10.6966    1.2200   53.5924 H       1  <0>         0.1200
     39 H39        -8.5929    2.0426   52.6120 H       1  <0>         0.1200
     40 H40        -7.1464    0.5103   51.3380 H       1  <0>         0.1200
     41 H41        -7.8032   -1.8447   51.0452 H       1  <0>         0.1200
     42 H42        -9.9046   -2.6683   52.0296 H       1  <0>         0.1200
     43 H43       -11.6787   -4.4322   56.1665 H       1  <0>         0.4100
     44 H44       -11.4690   -1.5081   57.1601 H       1  <0>         0.1300
     45 H45        -9.9106   -0.4415   58.7383 H       1  <0>         0.1300
     46 H46        -8.6833   -1.8107   60.3743 H       1  <0>         0.1200
     47 H47        -9.0102   -4.2491   60.4369 H       1  <0>         0.1300
     48 H48       -10.5721   -5.3244   58.8680 H       1  <0>         0.1400
@<TRIPOS>BOND
     1     1     2    1
     2     1    29    1
     3     1    30    1
     4     1    31    1
     5     2     3    1
     6     2     4    1
     7     2    20    1
     8     4     5   am
     9     4    32    1
    10     5     6    2
    11     5     7   am
    12     7     8    1
    13     7    33    1
    14     8     9    1
    15     8    11    1
    16     8    10    1
    17    10    11    1
    18    10    34    1
    19    10    35    1
    20    11    12    1
    21    11    13    1
    22    13    14    1
    23    13    36    1
    24    13    37    1
    25    14    19   ar
    26    14    15   ar
    27    15    16   ar
    28    15    38    1
    29    16    17   ar
    30    16    39    1
    31    17    18   ar
    32    17    40    1
    33    18    19   ar
    34    18    41    1
    35    19    42    1
    36    20    21    2
    37    20    22   am
    38    22    23    1
    39    22    43    1
    40    23    28   ar
    41    23    24   ar
    42    24    25   ar
    43    24    44    1
    44    25    26   ar
    45    25    45    1
    46    26    27   ar
    47    26    46    1
    48    27    28   ar
    49    27    47    1
    50    28    48    1
@<TRIPOS>SUBSTRUCTURE
     1 <0>         1 TEMP              0 ****  ****    0 ROOT


##########                                Name:    ZINC000373715094
##########                DOCK_Rotatable_Bonds:                   6
##########                         Heavy_Atoms:                  27
##########                    Molecular_Weight:             362.431
##########                DOCK_Rotatable_Bonds:                   6
##########                       Formal_Charge:           0.0299999
##########                     HBond_Acceptors:                   6
##########                        HBond_Donors:                   2
##########                         Heavy_Atoms:                  27
##########                          Grid_Score:          -35.970139
##########                     Grid_vdw_energy:          -35.174610
##########                      Grid_es_energy:           -0.795528
##########           Internal_energy_repulsive:           14.368165

@<TRIPOS>MOLECULE
ZINC000373715094
 49 52 1 0 0
SMALL
USER_CHARGES


@<TRIPOS>ATOM
      1 C1        -13.8211   -0.0627   54.1294 C.3     1  ZINC000373715094    0.0900
      2 N2        -12.8755   -0.8968   53.3834 N.am    1  ZINC000373715094   -0.6100
      3 C3        -11.5439   -0.8829   53.5662 C.2     1  ZINC000373715094    0.5200
      4 O4        -10.9593   -0.1783   54.3616 O.2     1  ZINC000373715094   -0.5200
      5 C5        -10.8805   -1.8742   52.6356 C.3     1  ZINC000373715094   -0.1600
      6 C6        -12.0385   -2.7829   52.1619 C.3     1  ZINC000373715094   -0.1000
      7 H7        -11.9113   -3.0636   51.1164 H       1  ZINC000373715094    0.1100
      8 C8        -12.1585   -4.0241   53.0484 C.3     1  ZINC000373715094    0.1300
      9 N9        -12.3297   -3.6127   54.4440 N.am    1  ZINC000373715094   -0.7300
     10 C10       -13.1669   -4.2954   55.2499 C.2     1  ZINC000373715094    0.5200
     11 O11       -13.7775   -5.2512   54.8201 O.2     1  ZINC000373715094   -0.5200
     12 C12       -13.3444   -3.8711   56.6850 C.3     1  ZINC000373715094   -0.0600
     13 C13       -12.1218   -4.2563   57.4775 C.2     1  ZINC000373715094    0.1200
     14 N14       -11.4351   -5.3549   57.3438 N.2     1  ZINC000373715094   -0.2300
     15 N15       -10.3679   -5.3676   58.2478 N.pl3   1  ZINC000373715094   -0.5100
     16 C16       -10.3917   -4.2126   58.9852 C.ar    1  ZINC000373715094    0.1300
     17 C17        -9.5915   -3.7018   60.0038 C.ar    1  ZINC000373715094   -0.1400
     18 C18        -9.8832   -2.4849   60.5522 C.ar    1  ZINC000373715094   -0.0700
     19 C19       -10.9721   -1.7461   60.1068 C.ar    1  ZINC000373715094   -0.1600
     20 C20       -11.7740   -2.2216   59.1098 C.ar    1  ZINC000373715094   -0.0400
     21 C21       -11.4922   -3.4620   58.5275 C.ar    1  ZINC000373715094   -0.1600
     22 C22       -13.2610   -1.8593   52.3447 C.3     1  ZINC000373715094    0.1800
     23 H23       -14.1272   -2.4389   52.6640 H       1  ZINC000373715094    0.1000
     24 C24       -13.5643   -1.1349   51.0585 C.ar    1  ZINC000373715094   -0.1000
     25 C25       -13.1812    0.1838   50.9010 C.ar    1  ZINC000373715094   -0.1000
     26 C26       -13.4595    0.8482   49.7211 C.ar    1  ZINC000373715094   -0.1200
     27 C27       -14.1205    0.1937   48.6987 C.ar    1  ZINC000373715094   -0.1100
     28 C28       -14.5028   -1.1254   48.8558 C.ar    1  ZINC000373715094   -0.1200
     29 C29       -14.2208   -1.7911   50.0339 C.ar    1  ZINC000373715094   -0.1100
     30 H30       -14.1413   -0.5909   55.0275 H       1  ZINC000373715094    0.0600
     31 H31       -13.3369    0.8724   54.4111 H       1  ZINC000373715094    0.0800
     32 H32       -14.6884    0.1509   53.5048 H       1  ZINC000373715094    0.0700
     33 H33       -10.4289   -1.3587   51.7882 H       1  ZINC000373715094    0.1100
     34 H34       -10.1321   -2.4582   53.1712 H       1  ZINC000373715094    0.1100
     35 H35       -13.0207   -4.6126   52.7347 H       1  ZINC000373715094    0.0700
     36 H36       -11.2546   -4.6259   52.9552 H       1  ZINC000373715094    0.0800
     37 H37       -11.8405   -2.8490   54.7880 H       1  ZINC000373715094    0.4000
     38 H38       -13.4812   -2.7907   56.7302 H       1  ZINC000373715094    0.1200
     39 H39       -14.2201   -4.3661   57.1046 H       1  ZINC000373715094    0.1200
     40 H40        -9.7157   -6.0798   58.3385 H       1  ZINC000373715094    0.4400
     41 H41        -8.7424   -4.2664   60.3599 H       1  ZINC000373715094    0.1300
     42 H42        -9.2597   -2.0926   61.3421 H       1  ZINC000373715094    0.1300
     43 H43       -11.1864   -0.7865   60.5538 H       1  ZINC000373715094    0.1300
     44 H44       -12.6187   -1.6412   58.7690 H       1  ZINC000373715094    0.1300
     45 H45       -12.6648    0.6952   51.6998 H       1  ZINC000373715094    0.1200
     46 H46       -13.1607    1.8788   49.5984 H       1  ZINC000373715094    0.1200
     47 H47       -14.3385    0.7131   47.7771 H       1  ZINC000373715094    0.1200
     48 H48       -15.0196   -1.6366   48.0571 H       1  ZINC000373715094    0.1300
     49 H49       -14.5195   -2.8216   50.1567 H       1  ZINC000373715094    0.1300
@<TRIPOS>BOND
     1     1     2    1
     2     1    30    1
     3     1    31    1
     4     1    32    1
     5     2    22    1
     6     2     3   am
     7     3     4    2
     8     3     5    1
     9     5     6    1
    10     5    33    1
    11     5    34    1
    12     6     7    1
    13     6     8    1
    14     6    22    1
    15     8     9    1
    16     8    35    1
    17     8    36    1
    18     9    10   am
    19     9    37    1
    20    10    11    2
    21    10    12    1
    22    12    13    1
    23    12    38    1
    24    12    39    1
    25    13    21    1
    26    13    14    2
    27    14    15    1
    28    15    16    1
    29    15    40    1
    30    16    21   ar
    31    16    17   ar
    32    17    18   ar
    33    17    41    1
    34    18    19   ar
    35    18    42    1
    36    19    20   ar
    37    19    43    1
    38    20    21   ar
    39    20    44    1
    40    22    23    1
    41    22    24    1
    42    24    29   ar
    43    24    25   ar
    44    25    26   ar
    45    25    45    1
    46    26    27   ar
    47    26    46    1
    48    27    28   ar
    49    27    47    1
    50    28    29   ar
    51    28    48    1
    52    29    49    1
@<TRIPOS>SUBSTRUCTURE
     1 ZINC000373715094        1 TEMP              0 ****  ****    0 ROOT


##########                                Name:    ZINC001310073555
##########                DOCK_Rotatable_Bonds:                  12
##########                         Heavy_Atoms:                  27
##########                    Molecular_Weight:             380.484
##########                DOCK_Rotatable_Bonds:                  12
##########                       Formal_Charge:          0.00999888
##########                     HBond_Acceptors:                   7
##########                        HBond_Donors:                   2
##########                         Heavy_Atoms:                  27
##########                          Grid_Score:          -35.959579
##########                     Grid_vdw_energy:          -34.738125
##########                      Grid_es_energy:           -1.221456
##########           Internal_energy_repulsive:           52.955399

@<TRIPOS>MOLECULE
ZINC001310073555
 59 59 1 0 0
SMALL
USER_CHARGES


@<TRIPOS>ATOM
      1 C1        -13.9202   -5.6334   56.6973 C.3     1  ZINC001310073555   -0.1600
      2 C2        -14.4019   -4.3831   55.9587 C.3     1  ZINC001310073555   -0.1100
      3 C3        -13.5275   -3.1904   56.3510 C.3     1  ZINC001310073555   -0.0600
      4 C4        -14.2770   -1.8896   56.0559 C.3     1  ZINC001310073555   -0.1100
      5 C5        -15.3251   -1.6469   57.1438 C.3     1  ZINC001310073555   -0.1600
      6 C6        -13.2035   -3.2649   57.8444 C.3     1  ZINC001310073555    0.1600
      7 N7        -12.4889   -2.0521   58.2501 N.am    1  ZINC001310073555   -0.7400
      8 C8        -11.9231   -1.9801   59.4713 C.2     1  ZINC001310073555    0.7100
      9 O9        -12.0046   -2.9222   60.2357 O.2     1  ZINC001310073555   -0.5700
     10 N10       -11.2671   -0.8637   59.8451 N.am    1  ZINC001310073555   -0.6700
     11 C11       -10.6778   -0.7885   61.1170 C.ar    1  ZINC001310073555    0.1000
     12 C12        -9.7135   -1.7119   61.4905 C.ar    1  ZINC001310073555   -0.0400
     13 C13        -9.1332   -1.6381   62.7429 C.ar    1  ZINC001310073555   -0.2200
     14 C14        -9.5133   -0.6406   63.6281 C.ar    1  ZINC001310073555    0.1500
     15 O15        -8.9406   -0.5706   64.8593 O.3     1  ZINC001310073555   -0.3200
     16 C16        -8.4916    0.7146   65.2938 C.3     1  ZINC001310073555    0.0300
     17 C17       -10.4771    0.2862   63.2584 C.ar    1  ZINC001310073555   -0.2300
     18 C18       -11.0571    0.2174   62.0029 C.ar    1  ZINC001310073555    0.1400
     19 O19       -12.0020    1.1249   61.6387 O.3     1  ZINC001310073555   -0.3100
     20 C20       -11.9617    2.3985   62.2853 C.3     1  ZINC001310073555    0.0300
     21 C21       -12.2471   -3.2236   55.5569 C.2     1  ZINC001310073555    0.4800
     22 O22       -11.4094   -4.0609   55.7960 O.2     1  ZINC001310073555   -0.5000
     23 O23       -12.0372   -2.3231   54.5838 O.3     1  ZINC001310073555   -0.3400
     24 C24       -12.1324   -2.7975   53.2148 C.3     1  ZINC001310073555    0.1200
     25 C25       -11.8562   -4.3019   53.1760 C.3     1  ZINC001310073555   -0.1800
     26 C26       -13.5381   -2.5230   52.6766 C.3     1  ZINC001310073555   -0.1400
     27 C27       -11.1034   -2.0675   52.3494 C.3     1  ZINC001310073555   -0.1800
     28 H28       -14.5432   -6.4831   56.4178 H       1  ZINC001310073555    0.0600
     29 H29       -12.8842   -5.8383   56.4276 H       1  ZINC001310073555    0.0500
     30 H30       -13.9902   -5.4698   57.7727 H       1  ZINC001310073555    0.0600
     31 H31       -14.3320   -4.5468   54.8833 H       1  ZINC001310073555    0.0800
     32 H32       -15.4380   -4.1783   56.2285 H       1  ZINC001310073555    0.0800
     33 H33       -13.5711   -1.0592   56.0396 H       1  ZINC001310073555    0.0800
     34 H34       -14.7702   -1.9664   55.0868 H       1  ZINC001310073555    0.0800
     35 H35       -16.0309   -2.4774   57.1600 H       1  ZINC001310073555    0.0600
     36 H36       -14.8319   -1.5702   58.1128 H       1  ZINC001310073555    0.0500
     37 H37       -15.8591   -0.7203   56.9336 H       1  ZINC001310073555    0.0600
     38 H38       -14.1295   -3.3485   58.4133 H       1  ZINC001310073555    0.0800
     39 H39       -12.5785   -4.1367   58.0375 H       1  ZINC001310073555    0.0800
     40 H40       -12.4229   -1.3010   57.6399 H       1  ZINC001310073555    0.4000
     41 H41       -11.2022   -0.1120   59.2355 H       1  ZINC001310073555    0.4100
     42 H42        -9.4159   -2.4897   60.8027 H       1  ZINC001310073555    0.1500
     43 H43        -8.3826   -2.3586   63.0327 H       1  ZINC001310073555    0.1300
     44 H44        -7.7403    1.0909   64.5994 H       1  ZINC001310073555    0.0600
     45 H45        -9.3359    1.4033   65.3240 H       1  ZINC001310073555    0.0600
     46 H46        -8.0561    0.6297   66.2894 H       1  ZINC001310073555    0.1000
     47 H47       -10.7726    1.0627   63.9484 H       1  ZINC001310073555    0.1400
     48 H48       -12.7676    3.0254   61.9039 H       1  ZINC001310073555    0.1000
     49 H49       -12.0834    2.2643   63.3602 H       1  ZINC001310073555    0.0600
     50 H50       -11.0031    2.8775   62.0853 H       1  ZINC001310073555    0.0600
     51 H51       -12.5893   -4.8219   53.7926 H       1  ZINC001310073555    0.0600
     52 H52       -11.9277   -4.6580   52.1483 H       1  ZINC001310073555    0.0700
     53 H53       -10.8548   -4.4974   53.5595 H       1  ZINC001310073555    0.0800
     54 H54       -13.7348   -1.4513   52.7043 H       1  ZINC001310073555    0.0700
     55 H55       -13.6096   -2.8792   51.6489 H       1  ZINC001310073555    0.0800
     56 H56       -14.2712   -3.0431   53.2931 H       1  ZINC001310073555    0.0700
     57 H57       -10.1019   -2.2631   52.7328 H       1  ZINC001310073555    0.0800
     58 H58       -11.1749   -2.4236   51.3217 H       1  ZINC001310073555    0.0700
     59 H59       -11.3002   -0.9958   52.3770 H       1  ZINC001310073555    0.0600
@<TRIPOS>BOND
     1     1     2    1
     2     1    28    1
     3     1    29    1
     4     1    30    1
     5     2     3    1
     6     2    31    1
     7     2    32    1
     8     3     4    1
     9     3     6    1
    10     3    21    1
    11     4     5    1
    12     4    33    1
    13     4    34    1
    14     5    35    1
    15     5    36    1
    16     5    37    1
    17     6     7    1
    18     6    38    1
    19     6    39    1
    20     7     8   am
    21     7    40    1
    22     8     9    2
    23     8    10   am
    24    10    11    1
    25    10    41    1
    26    11    18   ar
    27    11    12   ar
    28    12    13   ar
    29    12    42    1
    30    13    14   ar
    31    13    43    1
    32    14    15    1
    33    14    17   ar
    34    15    16    1
    35    16    44    1
    36    16    45    1
    37    16    46    1
    38    17    18   ar
    39    17    47    1
    40    18    19    1
    41    19    20    1
    42    20    48    1
    43    20    49    1
    44    20    50    1
    45    21    22    2
    46    21    23    1
    47    23    24    1
    48    24    25    1
    49    24    26    1
    50    24    27    1
    51    25    51    1
    52    25    52    1
    53    25    53    1
    54    26    54    1
    55    26    55    1
    56    26    56    1
    57    27    57    1
    58    27    58    1
    59    27    59    1
@<TRIPOS>SUBSTRUCTURE
     1 ZINC001310073555        1 TEMP              0 ****  ****    0 ROOT


##########                                Name:    ZINC000962730513
##########                DOCK_Rotatable_Bonds:                   6
##########                         Heavy_Atoms:                  24
##########                    Molecular_Weight:             342.465
##########                DOCK_Rotatable_Bonds:                   6
##########                       Formal_Charge:         -0.00999998
##########                     HBond_Acceptors:                   6
##########                        HBond_Donors:                   1
##########                         Heavy_Atoms:                  24
##########                          Grid_Score:          -35.912628
##########                     Grid_vdw_energy:          -34.686394
##########                      Grid_es_energy:           -1.226235
##########           Internal_energy_repulsive:           13.361370

@<TRIPOS>MOLECULE
ZINC000962730513
 46 49 1 0 0
SMALL
USER_CHARGES


@<TRIPOS>ATOM
      1 C1         -8.0839    3.2514   53.4762 C.3     1  ZINC000962730513   -0.1400
      2 C2         -7.0405    2.6114   52.5581 C.3     1  ZINC000962730513   -0.0800
      3 C3         -5.6587    2.9565   53.0508 C.2     1  ZINC000962730513   -0.0100
      4 C4         -4.5280    2.7740   52.3054 C.2     1  ZINC000962730513   -0.2800
      5 C5         -4.4849    2.2285   50.9454 C.2     1  ZINC000962730513    0.6000
      6 O6         -5.5205    1.9961   50.3498 O.2     1  ZINC000962730513   -0.5200
      7 N7         -3.2984    1.9844   50.3547 N.am    1  ZINC000962730513   -0.7000
      8 C8         -3.2553    1.4376   48.9962 C.3     1  ZINC000962730513    0.1200
      9 H9         -3.9974    0.6705   48.7751 H       1  ZINC000962730513    0.1400
     10 C10        -1.8828    1.3028   48.3336 C.3     1  ZINC000962730513   -0.1700
     11 H11        -0.9855    1.5477   48.9019 H       1  ZINC000962730513    0.1200
     12 C12        -1.7367    0.3143   47.1569 C.3     1  ZINC000962730513    0.0700
     13 N13        -2.1107    1.1043   45.9556 N.3     1  ZINC000962730513   -0.5000
     14 C14        -2.5019    0.2235   44.8469 C.3     1  ZINC000962730513    0.1100
     15 C15        -1.4295    0.2416   43.7884 C.ar    1  ZINC000962730513    0.3200
     16 N16        -0.4086    1.0641   43.9236 N.ar    1  ZINC000962730513   -0.5100
     17 C17         0.5519    1.1077   43.0143 C.ar    1  ZINC000962730513    0.1500
     18 C18         0.4734    0.2736   41.9103 C.ar    1  ZINC000962730513   -0.1900
     19 C19         1.5461    0.2914   40.8520 C.3     1  ZINC000962730513   -0.1100
     20 C20        -0.6153   -0.5774   41.8031 C.ar    1  ZINC000962730513    0.1500
     21 N21        -1.5347   -0.5693   42.7548 N.ar    1  ZINC000962730513   -0.5000
     22 C22        -3.2576    1.9338   46.4068 C.3     1  ZINC000962730513    0.0700
     23 C23        -2.8680    2.3913   47.8642 C.3     1  ZINC000962730513   -0.1700
     24 H24        -2.7125    3.4566   48.0346 H       1  ZINC000962730513    0.1300
     25 S25        -3.1333    3.2987   53.2386 S.3     1  ZINC000962730513    0.1900
     26 C26        -4.1216    3.7297   54.5609 C.2     1  ZINC000962730513   -0.2200
     27 C27        -5.4108    3.4916   54.2925 C.2     1  ZINC000962730513   -0.1500
     28 H28        -7.9553    2.8742   54.4907 H       1  ZINC000962730513    0.0600
     29 H29        -7.9564    4.3338   53.4719 H       1  ZINC000962730513    0.0500
     30 H30        -9.0833    3.0018   53.1197 H       1  ZINC000962730513    0.0600
     31 H31        -7.1680    1.5289   52.5623 H       1  ZINC000962730513    0.1000
     32 H32        -7.1691    2.9885   51.5435 H       1  ZINC000962730513    0.0700
     33 H33        -2.4730    2.1707   50.8290 H       1  ZINC000962730513    0.4000
     34 H34        -0.7065   -0.0330   47.0777 H       1  ZINC000962730513    0.0900
     35 H35        -2.4147   -0.5297   47.2829 H       1  ZINC000962730513    0.0500
     36 H36        -2.6289   -0.7934   45.2183 H       1  ZINC000962730513    0.1000
     37 H37        -3.4411    0.5738   44.4187 H       1  ZINC000962730513    0.0700
     38 H38         1.3856    1.7842   43.1310 H       1  ZINC000962730513    0.1700
     39 H39         2.3214   -0.4305   41.1085 H       1  ZINC000962730513    0.0800
     40 H40         1.1099    0.0289   39.8881 H       1  ZINC000962730513    0.0700
     41 H41         1.9827    1.2884   40.7938 H       1  ZINC000962730513    0.0700
     42 H42        -0.7100   -1.2409   40.9563 H       1  ZINC000962730513    0.1700
     43 H43        -3.3726    2.8058   45.7631 H       1  ZINC000962730513    0.0800
     44 H44        -4.1736    1.3432   46.4156 H       1  ZINC000962730513    0.0600
     45 H45        -3.7560    4.1434   55.4891 H       1  ZINC000962730513    0.1700
     46 H46        -6.1981    3.6971   55.0026 H       1  ZINC000962730513    0.1500
@<TRIPOS>BOND
     1     1     2    1
     2     1    28    1
     3     1    29    1
     4     1    30    1
     5     2     3    1
     6     2    31    1
     7     2    32    1
     8     3    27    1
     9     3     4    2
    10     4     5    1
    11     4    25    1
    12     5     6    2
    13     5     7   am
    14     7     8    1
    15     7    33    1
    16     8     9    1
    17     8    23    1
    18     8    10    1
    19    10    11    1
    20    10    23    1
    21    10    12    1
    22    12    13    1
    23    12    34    1
    24    12    35    1
    25    13    14    1
    26    13    22    1
    27    14    15    1
    28    14    36    1
    29    14    37    1
    30    15    21   ar
    31    15    16   ar
    32    16    17   ar
    33    17    18   ar
    34    17    38    1
    35    18    19    1
    36    18    20   ar
    37    19    39    1
    38    19    40    1
    39    19    41    1
    40    20    21   ar
    41    20    42    1
    42    22    23    1
    43    22    43    1
    44    22    44    1
    45    23    24    1
    46    25    26    1
    47    26    27    2
    48    26    45    1
    49    27    46    1
@<TRIPOS>SUBSTRUCTURE
     1 ZINC000962730513        1 TEMP              0 ****  ****    0 ROOT


##########                                Name:    ZINC000980108339
##########                DOCK_Rotatable_Bonds:                   9
##########                         Heavy_Atoms:                  25
##########                    Molecular_Weight:             348.445
##########                DOCK_Rotatable_Bonds:                   9
##########                       Formal_Charge:          -0.0100001
##########                     HBond_Acceptors:                   7
##########                        HBond_Donors:                   3
##########                         Heavy_Atoms:                  25
##########                          Grid_Score:          -35.887970
##########                     Grid_vdw_energy:          -33.283375
##########                      Grid_es_energy:           -2.604597
##########           Internal_energy_repulsive:            7.450821

@<TRIPOS>MOLECULE
ZINC000980108339
 53 56 1 0 0
SMALL
USER_CHARGES


@<TRIPOS>ATOM
      1 C1        -11.2497   -4.1197   57.2619 C.3     1  ZINC000980108339    0.1200
      2 N2        -10.6013   -3.3231   58.3067 N.am    1  ZINC000980108339   -0.6400
      3 C3        -10.8281   -1.8907   58.5500 C.3     1  ZINC000980108339    0.1100
      4 C4         -9.9085   -1.5690   59.7441 C.3     1  ZINC000980108339    0.1000
      5 H5         -9.1649   -0.8227   59.4642 H       1  ZINC000980108339    0.1200
      6 C6        -10.7185   -1.0909   60.9216 C.2     1  ZINC000980108339    0.5000
      7 O7        -11.7030   -1.7072   61.2707 O.2     1  ZINC000980108339   -0.5200
      8 N8        -10.3487    0.0214   61.5867 N.am    1  ZINC000980108339   -0.7200
      9 C9        -11.1370    0.4872   62.7303 C.3     1  ZINC000980108339    0.1300
     10 C10       -10.1975    1.0159   63.8160 C.3     1  ZINC000980108339   -0.1200
     11 H11        -9.6657    1.9178   63.5130 H       1  ZINC000980108339    0.1000
     12 C12       -10.8566    1.1254   65.2011 C.3     1  ZINC000980108339   -0.1400
     13 C13        -9.5333    0.6029   65.7850 C.3     1  ZINC000980108339    0.1200
     14 H14        -9.6664   -0.1072   66.6012 H       1  ZINC000980108339    0.1100
     15 N15        -8.5737    1.6629   66.1040 N.am    1  ZINC000980108339   -0.7200
     16 C16        -7.3848    1.3515   66.6572 C.2     1  ZINC000980108339    0.5200
     17 O17        -7.1088    0.1935   66.8896 O.2     1  ZINC000980108339   -0.5300
     18 C18        -6.3983    2.4420   66.9870 C.3     1  ZINC000980108339   -0.1100
     19 C19        -5.4000    2.5914   65.8373 C.3     1  ZINC000980108339   -0.1300
     20 H20        -5.7266    3.2214   65.0099 H       1  ZINC000980108339    0.1200
     21 C21        -4.5228    1.3835   65.5019 C.3     1  ZINC000980108339   -0.1700
     22 C22        -3.9116    2.6059   66.1915 C.3     1  ZINC000980108339   -0.1200
     23 H23        -3.6435    2.5086   67.2435 H       1  ZINC000980108339    0.1000
     24 C24        -2.9950    3.5029   65.3571 C.3     1  ZINC000980108339   -0.1300
     25 C25        -1.6183    3.8382   65.9346 C.3     1  ZINC000980108339   -0.1800
     26 C26        -1.7387    2.8672   64.7584 C.3     1  ZINC000980108339   -0.1800
     27 C27        -9.2844   -0.0640   64.4200 C.3     1  ZINC000980108339   -0.1400
     28 N28        -9.2614   -2.8543   60.0467 N.am    1  ZINC000980108339   -0.7200
     29 C29        -9.7122   -3.7852   59.1955 C.2     1  ZINC000980108339    0.7000
     30 O30        -9.3411   -4.9427   59.2216 O.2     1  ZINC000980108339   -0.5800
     31 H31       -10.8966   -5.1493   57.3183 H       1  ZINC000980108339    0.0900
     32 H32       -12.3300   -4.0977   57.4061 H       1  ZINC000980108339    0.0600
     33 H33       -11.0051   -3.7046   56.2842 H       1  ZINC000980108339    0.0600
     34 H34       -10.5410   -1.3042   57.6772 H       1  ZINC000980108339    0.1000
     35 H35       -11.8706   -1.7070   58.8096 H       1  ZINC000980108339    0.0900
     36 H36        -9.5605    0.5137   61.3083 H       1  ZINC000980108339    0.4000
     37 H37       -11.8066    1.2850   62.4092 H       1  ZINC000980108339    0.0700
     38 H38       -11.7233   -0.3408   63.1289 H       1  ZINC000980108339    0.0700
     39 H39       -11.0892    2.1491   65.4943 H       1  ZINC000980108339    0.0800
     40 H40       -11.6951    0.4430   65.3408 H       1  ZINC000980108339    0.1000
     41 H41        -8.7939    2.5889   65.9170 H       1  ZINC000980108339    0.4000
     42 H42        -6.9306    3.3822   67.1305 H       1  ZINC000980108339    0.1000
     43 H43        -5.8637    2.1839   67.9011 H       1  ZINC000980108339    0.1000
     44 H44        -4.6569    0.4824   66.1004 H       1  ZINC000980108339    0.0900
     45 H45        -4.2720    1.2191   64.4539 H       1  ZINC000980108339    0.1000
     46 H46        -3.4969    4.2735   64.7719 H       1  ZINC000980108339    0.1000
     47 H47        -1.2144    4.8297   65.7294 H       1  ZINC000980108339    0.0900
     48 H48        -1.3658    3.4197   66.9088 H       1  ZINC000980108339    0.0900
     49 H49        -1.5653    1.8099   64.9588 H       1  ZINC000980108339    0.0900
     50 H50        -1.4140    3.2198   63.7794 H       1  ZINC000980108339    0.0900
     51 H51        -9.6929   -1.0718   64.3455 H       1  ZINC000980108339    0.1000
     52 H52        -8.2492    0.0001   64.0850 H       1  ZINC000980108339    0.0800
     53 H53        -8.6140   -3.0051   60.7531 H       1  ZINC000980108339    0.4400
@<TRIPOS>BOND
     1     1     2    1
     2     1    31    1
     3     1    32    1
     4     1    33    1
     5     2    29   am
     6     2     3    1
     7     3     4    1
     8     3    34    1
     9     3    35    1
    10     4     5    1
    11     4     6    1
    12     4    28    1
    13     6     7    2
    14     6     8   am
    15     8     9    1
    16     8    36    1
    17     9    10    1
    18     9    37    1
    19     9    38    1
    20    10    11    1
    21    10    27    1
    22    10    12    1
    23    12    13    1
    24    12    39    1
    25    12    40    1
    26    13    14    1
    27    13    15    1
    28    13    27    1
    29    15    16   am
    30    15    41    1
    31    16    17    2
    32    16    18    1
    33    18    19    1
    34    18    42    1
    35    18    43    1
    36    19    20    1
    37    19    22    1
    38    19    21    1
    39    21    22    1
    40    21    44    1
    41    21    45    1
    42    22    23    1
    43    22    24    1
    44    24    26    1
    45    24    25    1
    46    24    46    1
    47    25    26    1
    48    25    47    1
    49    25    48    1
    50    26    49    1
    51    26    50    1
    52    27    51    1
    53    27    52    1
    54    28    29   am
    55    28    53    1
    56    29    30    2
@<TRIPOS>SUBSTRUCTURE
     1 ZINC000980108339        1 TEMP              0 ****  ****    0 ROOT


##########                                Name:    ZINC000482540246
##########                DOCK_Rotatable_Bonds:                  10
##########                         Heavy_Atoms:                  30
##########                    Molecular_Weight:              409.46
##########                DOCK_Rotatable_Bonds:                  10
##########                       Formal_Charge:         2.83122e-07
##########                     HBond_Acceptors:                   7
##########                        HBond_Donors:                   2
##########                         Heavy_Atoms:                  30
##########                          Grid_Score:          -35.884544
##########                     Grid_vdw_energy:          -35.333611
##########                      Grid_es_energy:           -0.550936
##########           Internal_energy_repulsive:           14.338608

@<TRIPOS>MOLECULE
ZINC000482540246
 54 56 1 0 0
SMALL
USER_CHARGES


@<TRIPOS>ATOM
      1 C1         -6.2562    3.2595   52.5774 C.3     1  ZINC000482540246    0.0400
      2 O2         -5.9732    2.1997   51.6615 O.3     1  ZINC000482540246   -0.3100
      3 C3         -6.8302    1.1479   51.6528 C.ar    1  ZINC000482540246    0.3300
      4 C4         -7.9681    1.1813   52.4483 C.ar    1  ZINC000482540246   -0.1800
      5 C5         -8.8343    0.1018   52.4303 C.ar    1  ZINC000482540246   -0.0100
      6 C6        -10.0801    0.0993   53.2784 C.3     1  ZINC000482540246    0.2000
      7 H7        -10.5228   -0.8967   53.2707 H       1  ZINC000482540246    0.1000
      8 C8        -11.0831    1.1076   52.7144 C.3     1  ZINC000482540246   -0.1600
      9 N9         -9.7355    0.4701   54.6532 N.am    1  ZINC000482540246   -0.7400
     10 C10       -10.4964    0.0382   55.6784 C.2     1  ZINC000482540246    0.7100
     11 O11       -11.4697   -0.6577   55.4622 O.2     1  ZINC000482540246   -0.5800
     12 N12       -10.1785    0.3780   56.9434 N.am    1  ZINC000482540246   -0.7400
     13 C13       -11.0046   -0.0928   58.0579 C.3     1  ZINC000482540246    0.2100
     14 H14       -12.0544    0.1044   57.8408 H       1  ZINC000482540246    0.1200
     15 C15       -10.6015    0.6424   59.3376 C.3     1  ZINC000482540246    0.0500
     16 O16       -11.2947    0.0755   60.4512 O.3     1  ZINC000482540246   -0.3000
     17 C17       -10.9036    0.4755   61.6903 C.ar    1  ZINC000482540246    0.1000
     18 C18       -11.3513    1.6827   62.2039 C.ar    1  ZINC000482540246   -0.1800
     19 C19       -10.9528    2.0872   63.4641 C.ar    1  ZINC000482540246   -0.0900
     20 C20       -10.1086    1.2896   64.2134 C.ar    1  ZINC000482540246   -0.1300
     21 C21        -9.6592    0.0845   63.7047 C.ar    1  ZINC000482540246   -0.1200
     22 C22       -10.0591   -0.3279   62.4468 C.ar    1  ZINC000482540246    0.0700
     23 F23        -9.6204   -1.5049   61.9496 F       1  ZINC000482540246   -0.1300
     24 C24       -10.8000   -1.5742   58.2440 C.ar    1  ZINC000482540246   -0.1000
     25 C25       -11.8455   -2.4501   58.0188 C.ar    1  ZINC000482540246   -0.0800
     26 C26       -11.6578   -3.8090   58.1896 C.ar    1  ZINC000482540246   -0.1200
     27 C27       -10.4245   -4.2920   58.5852 C.ar    1  ZINC000482540246   -0.1200
     28 C28        -9.3788   -3.4163   58.8095 C.ar    1  ZINC000482540246   -0.1200
     29 C29        -9.5653   -2.0577   58.6346 C.ar    1  ZINC000482540246   -0.1000
     30 C30        -8.5297   -0.9777   51.6133 C.ar    1  ZINC000482540246   -0.2100
     31 C31        -7.3804   -0.9431   50.8484 C.ar    1  ZINC000482540246    0.1500
     32 N32        -6.5767    0.1026   50.8827 N.ar    1  ZINC000482540246   -0.5400
     33 H33        -5.4960    4.0348   52.4821 H       1  ZINC000482540246    0.1000
     34 H34        -7.2358    3.6817   52.3530 H       1  ZINC000482540246    0.0600
     35 H35        -6.2528    2.8704   53.5956 H       1  ZINC000482540246    0.0600
     36 H36        -8.1741    2.0380   53.0728 H       1  ZINC000482540246    0.1500
     37 H37       -10.6404    2.1036   52.7220 H       1  ZINC000482540246    0.0600
     38 H38       -11.3394    0.8317   51.6915 H       1  ZINC000482540246    0.0700
     39 H39       -11.9841    1.1058   53.3278 H       1  ZINC000482540246    0.0700
     40 H40        -8.9598    1.0262   54.8256 H       1  ZINC000482540246    0.4000
     41 H41        -9.4028    0.9342   57.1158 H       1  ZINC000482540246    0.4000
     42 H42        -9.5267    0.5437   59.4901 H       1  ZINC000482540246    0.0800
     43 H43       -10.8603    1.6974   59.2474 H       1  ZINC000482540246    0.0800
     44 H44       -12.0107    2.3071   61.6193 H       1  ZINC000482540246    0.1400
     45 H45       -11.3015    3.0280   63.8638 H       1  ZINC000482540246    0.1300
     46 H46        -9.7989    1.6082   65.1977 H       1  ZINC000482540246    0.1400
     47 H47        -8.9992   -0.5367   64.2920 H       1  ZINC000482540246    0.1400
     48 H48       -12.8091   -2.0727   57.7097 H       1  ZINC000482540246    0.1200
     49 H49       -12.4749   -4.4932   58.0143 H       1  ZINC000482540246    0.1200
     50 H50       -10.2781   -5.3536   58.7192 H       1  ZINC000482540246    0.1200
     51 H51        -8.4153   -3.7936   59.1189 H       1  ZINC000482540246    0.1200
     52 H52        -8.7483   -1.3735   58.8099 H       1  ZINC000482540246    0.1200
     53 H53        -9.1843   -1.8359   51.5761 H       1  ZINC000482540246    0.1400
     54 H54        -7.1388   -1.7806   50.2109 H       1  ZINC000482540246    0.1600
@<TRIPOS>BOND
     1     1     2    1
     2     1    33    1
     3     1    34    1
     4     1    35    1
     5     2     3    1
     6     3    32   ar
     7     3     4   ar
     8     4     5   ar
     9     4    36    1
    10     5     6    1
    11     5    30   ar
    12     6     7    1
    13     6     8    1
    14     6     9    1
    15     8    37    1
    16     8    38    1
    17     8    39    1
    18     9    10   am
    19     9    40    1
    20    10    11    2
    21    10    12   am
    22    12    13    1
    23    12    41    1
    24    13    14    1
    25    13    15    1
    26    13    24    1
    27    15    16    1
    28    15    42    1
    29    15    43    1
    30    16    17    1
    31    17    22   ar
    32    17    18   ar
    33    18    19   ar
    34    18    44    1
    35    19    20   ar
    36    19    45    1
    37    20    21   ar
    38    20    46    1
    39    21    22   ar
    40    21    47    1
    41    22    23    1
    42    24    29   ar
    43    24    25   ar
    44    25    26   ar
    45    25    48    1
    46    26    27   ar
    47    26    49    1
    48    27    28   ar
    49    27    50    1
    50    28    29   ar
    51    28    51    1
    52    29    52    1
    53    30    31   ar
    54    30    53    1
    55    31    32   ar
    56    31    54    1
@<TRIPOS>SUBSTRUCTURE
     1 ZINC000482540246        1 TEMP              0 ****  ****    0 ROOT


##########                                Name:    ZINC000011972961
##########                DOCK_Rotatable_Bonds:                   6
##########                         Heavy_Atoms:                  28
##########                    Molecular_Weight:             397.501
##########                DOCK_Rotatable_Bonds:                   6
##########                       Formal_Charge:                   0
##########                     HBond_Acceptors:                   8
##########                        HBond_Donors:                   1
##########                         Heavy_Atoms:                  28
##########                          Grid_Score:          -35.844570
##########                     Grid_vdw_energy:          -35.844570
##########                      Grid_es_energy:            0.000000
##########           Internal_energy_repulsive:           26.732151

@<TRIPOS>MOLECULE
ZINC000011972961
 51 54 1 0 0
SMALL
USER_CHARGES


@<TRIPOS>ATOM
      1 C1        -14.0024   -2.9426   58.3442 C.3         |iu      0.0000
      2 C2        -12.6457   -3.5892   58.4538 C.2         |iu      0.0000
      3 C3        -12.2609   -4.5838   57.6441 C.2         |iu      0.0000
      4 C4        -13.0871   -5.1573   56.5747 C.2         |iu      0.0000
      5 O5        -13.8777   -6.0470   56.8275 O.2         |iu      0.0000
      6 N6        -12.9700   -4.6982   55.3130 N.am        |iu      0.0000
      7 C7        -13.7946   -5.2706   54.2458 C.3         |iu      0.0000
      8 C8        -12.0182   -3.6270   55.0086 C.3         |iu      0.0000
      9 H9        -11.2110   -3.6155   55.7410 H           |iu      0.0000
     10 C10       -11.4498   -3.7973   53.5786 C.3         |iu      0.0000
     11 C11       -12.3356   -2.8243   52.7593 C.3         |iu      0.0000
     12 O12       -12.5345   -1.7120   53.6580 O.3         |iu      0.0000
     13 C13       -12.7343   -2.2630   54.9737 C.3         |iu      0.0000
     14 S14       -10.6321   -5.1071   58.0371 S.3         |iu      0.0000
     15 C15       -10.5115   -3.9239   59.3324 C.ar        |iu      0.0000
     16 N16        -9.5199   -3.6480   60.1871 N.ar        |iu      0.0000
     17 C17        -9.6474   -2.7041   61.0915 C.ar        |iu      0.0000
     18 N18       -10.7480   -1.9836   61.2063 N.ar        |iu      0.0000
     19 C19       -11.7857   -2.1803   60.4073 C.ar        |iu      0.0000
     20 N20       -12.9282   -1.4178   60.5414 N.pl3       |iu      0.0000
     21 C21       -12.8267   -0.0061   60.9194 C.3         |iu      0.0000
     22 C22       -13.3374    0.1754   62.3255 C.ar        |iu      0.0000
     23 N23       -14.3502   -0.5544   62.7502 N.ar        |iu      0.0000
     24 C24       -14.8300   -0.4301   63.9724 C.ar        |iu      0.0000
     25 C25       -15.9893   -1.2887   64.4082 C.3         |iu      0.0000
     26 C26       -14.2820    0.4780   64.8581 C.ar        |iu      0.0000
     27 C27       -13.2155    1.2633   64.4471 C.ar        |iu      0.0000
     28 C28       -12.7353    1.1011   63.1569 C.ar        |iu      0.0000
     29 C29       -11.7017   -3.1869   59.4043 C.ar        |iu      0.0000
     30 H30       -13.8895   -1.9201   57.9836 H           |iu      0.0000
     31 H31       -14.6193   -3.5081   57.6457 H           |iu      0.0000
     32 H32       -14.4800   -2.9315   59.3240 H           |iu      0.0000
     33 H33       -14.8429   -5.0379   54.4322 H           |iu      0.0000
     34 H34       -13.4933   -4.8476   53.2874 H           |iu      0.0000
     35 H35       -13.6608   -6.3522   54.2237 H           |iu      0.0000
     36 H36       -10.4026   -3.4977   53.5380 H           |iu      0.0000
     37 H37       -11.5735   -4.8228   53.2304 H           |iu      0.0000
     38 H38       -11.8169   -2.5006   51.8569 H           |iu      0.0000
     39 H39       -13.2884   -3.2908   52.5091 H           |iu      0.0000
     40 H40       -13.7994   -2.3990   55.1608 H           |iu      0.0000
     41 H41       -12.3064   -1.5972   55.7233 H           |iu      0.0000
     42 H42        -8.8247   -2.5112   61.7640 H           |iu      0.0000
     43 H43       -13.7986   -1.8167   60.3853 H           |iu      0.0000
     44 H44       -11.7847    0.3099   60.8677 H           |iu      0.0000
     45 H45       -13.4236    0.5971   60.2353 H           |iu      0.0000
     46 H46       -15.6125   -2.2139   64.8441 H           |iu      0.0000
     47 H47       -16.5803   -0.7519   65.1502 H           |iu      0.0000
     48 H48       -16.6136   -1.5214   63.5455 H           |iu      0.0000
     49 H49       -14.6794    0.5752   65.8576 H           |iu      0.0000
     50 H50       -12.7671    1.9816   65.1177 H           |iu      0.0000
     51 H51       -11.9058    1.6955   62.8034 H           |iu      0.0000
@<TRIPOS>BOND
     1     1     2    1
     2     1    30    1
     3     1    31    1
     4     1    32    1
     5     2    29    1
     6     2     3    2
     7     3     4    1
     8     3    14    1
     9     4     5    2
    10     4     6   am
    11     6     7    1
    12     6     8    1
    13     7    33    1
    14     7    34    1
    15     7    35    1
    16     8     9    1
    17     8    13    1
    18     8    10    1
    19    10    11    1
    20    10    36    1
    21    10    37    1
    22    11    12    1
    23    11    38    1
    24    11    39    1
    25    12    13    1
    26    13    40    1
    27    13    41    1
    28    14    15    1
    29    15    29   ar
    30    15    16   ar
    31    16    17   ar
    32    17    18   ar
    33    17    42    1
    34    18    19   ar
    35    19    20    1
    36    19    29   ar
    37    20    21    1
    38    20    43    1
    39    21    22    1
    40    21    44    1
    41    21    45    1
    42    22    28   ar
    43    22    23   ar
    44    23    24   ar
    45    24    25    1
    46    24    26   ar
    47    25    46    1
    48    25    47    1
    49    25    48    1
    50    26    27   ar
    51    26    49    1
    52    27    28   ar
    53    27    50    1
    54    28    51    1
@<TRIPOS>SUBSTRUCTURE
     1  |iu        1 TEMP              0 ****  ****    0 ROOT


##########                                Name:    ZINC001328997126
##########                DOCK_Rotatable_Bonds:                   7
##########                         Heavy_Atoms:                  26
##########                    Molecular_Weight:             388.488
##########                DOCK_Rotatable_Bonds:                   7
##########                       Formal_Charge:           0.0299993
##########                     HBond_Acceptors:                  10
##########                        HBond_Donors:                   1
##########                         Heavy_Atoms:                  26
##########                          Grid_Score:          -35.843933
##########                     Grid_vdw_energy:          -34.020081
##########                      Grid_es_energy:           -1.823854
##########           Internal_energy_repulsive:           13.085965

@<TRIPOS>MOLECULE
ZINC001328997126
 54 56 1 0 0
SMALL
USER_CHARGES


@<TRIPOS>ATOM
      1 C1        -17.0839    1.4208   66.1711 C.3     1  ZINC001328997126   -0.1700
      2 C2        -17.7044    0.3485   65.2731 C.3     1  ZINC001328997126    0.1400
      3 N3        -16.6648   -0.2396   64.4249 N.am    1  ZINC001328997126   -0.6300
      4 C4        -15.2452   -0.3787   64.7840 C.3     1  ZINC001328997126    0.0700
      5 C5        -14.6182   -1.0511   63.5474 C.3     1  ZINC001328997126    0.0700
      6 H6        -14.1937   -2.0194   63.8131 H       1  ZINC001328997126    0.1200
      7 C7        -13.5474   -0.1486   62.9311 C.3     1  ZINC001328997126    0.0500
      8 N8        -12.4947   -0.9780   62.3298 N.3     1  ZINC001328997126   -0.5300
      9 C9        -11.3245   -0.1651   61.9704 C.3     1  ZINC001328997126    0.0500
     10 C10       -10.2230   -1.0755   61.4222 C.3     1  ZINC001328997126    0.0600
     11 N11       -10.7320   -1.8065   60.2533 N.3     1  ZINC001328997126   -0.5200
     12 C12        -9.6793   -2.6361   59.6519 C.3     1  ZINC001328997126    0.0400
     13 C13       -10.2979   -3.6026   58.6751 C.2     1  ZINC001328997126    0.5200
     14 O14       -10.2403   -4.7959   58.8838 O.2     1  ZINC001328997126   -0.5100
     15 N15       -10.9151   -3.1408   57.5695 N.am    1  ZINC001328997126   -0.7300
     16 C16       -11.5149   -4.0805   56.6190 C.3     1  ZINC001328997126    0.1600
     17 H17       -10.8425   -4.9242   56.4640 H       1  ZINC001328997126    0.1100
     18 C18       -12.8600   -4.5855   57.1696 C.3     1  ZINC001328997126   -0.1400
     19 C19       -13.5821   -5.2948   55.9950 C.3     1  ZINC001328997126   -0.5800
     20 S20       -13.2661   -4.1612   54.5899 S.o2    1  ZINC001328997126    2.4000
     21 O21       -12.9141   -4.9210   53.4418 O.2     1  ZINC001328997126   -0.9300
     22 O22       -14.3141   -3.2047   54.5116 O.2     1  ZINC001328997126   -0.9300
     23 C23       -11.7699   -3.3674   55.2761 C.3     1  ZINC001328997126   -0.6100
     24 C24       -11.9022   -2.6195   60.6127 C.3     1  ZINC001328997126    0.0500
     25 C25       -13.0036   -1.7091   61.1609 C.3     1  ZINC001328997126    0.0600
     26 O26       -15.7383   -1.2186   62.6309 O.3     1  ZINC001328997126   -0.3100
     27 C27       -16.8531   -0.7436   63.1977 C.2     1  ZINC001328997126    0.6400
     28 O28       -17.9359   -0.7602   62.6467 O.2     1  ZINC001328997126   -0.5200
     29 H29       -16.3155    0.9691   66.7985 H       1  ZINC001328997126    0.0600
     30 H30       -16.6368    2.1987   65.5522 H       1  ZINC001328997126    0.0600
     31 H31       -17.8574    1.8584   66.8022 H       1  ZINC001328997126    0.0700
     32 H32       -18.1516   -0.4294   65.8920 H       1  ZINC001328997126    0.0900
     33 H33       -18.4729    0.8002   64.6457 H       1  ZINC001328997126    0.0900
     34 H34       -14.7963    0.5994   64.9568 H       1  ZINC001328997126    0.0900
     35 H35       -15.1330   -1.0133   65.6631 H       1  ZINC001328997126    0.0900
     36 H36       -13.9993    0.4787   62.1628 H       1  ZINC001328997126    0.0900
     37 H37       -13.1139    0.4826   63.7069 H       1  ZINC001328997126    0.0600
     38 H38       -11.6070    0.5626   61.2096 H       1  ZINC001328997126    0.0500
     39 H39       -10.9585    0.3565   62.8547 H       1  ZINC001328997126    0.0900
     40 H40        -9.3649   -0.4714   61.1280 H       1  ZINC001328997126    0.0800
     41 H41        -9.9215   -1.7856   62.1922 H       1  ZINC001328997126    0.0500
     42 H42        -8.9673   -1.9972   59.1294 H       1  ZINC001328997126    0.1100
     43 H43        -9.1627   -3.1915   60.4348 H       1  ZINC001328997126    0.0700
     44 H44       -10.9621   -2.1864   57.4032 H       1  ZINC001328997126    0.4100
     45 H45       -12.6894   -5.2905   57.9832 H       1  ZINC001328997126    0.1100
     46 H46       -13.4581   -3.7452   57.5225 H       1  ZINC001328997126    0.0900
     47 H47       -13.1441   -6.2752   55.8072 H       1  ZINC001328997126    0.1400
     48 H48       -14.6509   -5.3785   56.1918 H       1  ZINC001328997126    0.1400
     49 H49       -11.9461   -2.3040   55.4381 H       1  ZINC001328997126    0.1400
     50 H50       -10.9227   -3.5139   54.6062 H       1  ZINC001328997126    0.1500
     51 H51       -12.2682   -3.1411   59.7284 H       1  ZINC001328997126    0.1000
     52 H52       -11.6197   -3.3472   61.3735 H       1  ZINC001328997126    0.0400
     53 H53       -13.8618   -2.3132   61.4552 H       1  ZINC001328997126    0.0800
     54 H54       -13.3052   -0.9989   60.3909 H       1  ZINC001328997126    0.0500
@<TRIPOS>BOND
     1     1     2    1
     2     1    29    1
     3     1    30    1
     4     1    31    1
     5     2     3    1
     6     2    32    1
     7     2    33    1
     8     3    27   am
     9     3     4    1
    10     4     5    1
    11     4    34    1
    12     4    35    1
    13     5     6    1
    14     5     7    1
    15     5    26    1
    16     7     8    1
    17     7    36    1
    18     7    37    1
    19     8    25    1
    20     8     9    1
    21     9    10    1
    22     9    38    1
    23     9    39    1
    24    10    11    1
    25    10    40    1
    26    10    41    1
    27    11    12    1
    28    11    24    1
    29    12    13    1
    30    12    42    1
    31    12    43    1
    32    13    14    2
    33    13    15   am
    34    15    16    1
    35    15    44    1
    36    16    17    1
    37    16    23    1
    38    16    18    1
    39    18    19    1
    40    18    45    1
    41    18    46    1
    42    19    20    1
    43    19    47    1
    44    19    48    1
    45    20    21    2
    46    20    22    2
    47    20    23    1
    48    23    49    1
    49    23    50    1
    50    24    25    1
    51    24    51    1
    52    24    52    1
    53    25    53    1
    54    25    54    1
    55    26    27    1
    56    27    28    2
@<TRIPOS>SUBSTRUCTURE
     1 ZINC001328997126        1 TEMP              0 ****  ****    0 ROOT


##########                                Name:    ZINC000740843182
##########                DOCK_Rotatable_Bonds:                  10
##########                         Heavy_Atoms:                  24
##########                    Molecular_Weight:              419.34
##########                DOCK_Rotatable_Bonds:                  10
##########                       Formal_Charge:          0.00999957
##########                     HBond_Acceptors:                   7
##########                        HBond_Donors:                   3
##########                         Heavy_Atoms:                  24
##########                          Grid_Score:          -35.829891
##########                     Grid_vdw_energy:          -35.630123
##########                      Grid_es_energy:           -0.199767
##########           Internal_energy_repulsive:            9.146044

@<TRIPOS>MOLECULE
ZINC000740843182
 47 48 1 0 0
SMALL
USER_CHARGES


@<TRIPOS>ATOM
      1 C1         -7.9011    2.3479   56.8361 C.3     1  ZINC000740843182   -0.1500
      2 C2         -8.7688    1.1783   56.3667 C.3     1  ZINC000740843182   -0.1000
      3 H3         -8.1366    0.4185   55.9072 H       1  ZINC000740843182    0.0900
      4 C4         -9.5026    0.5745   57.5657 C.3     1  ZINC000740843182    0.1200
      5 N5         -9.9258   -0.7902   57.2427 N.am    1  ZINC000740843182   -0.7200
      6 C6        -10.8224   -1.4212   58.0265 C.2     1  ZINC000740843182    0.5500
      7 O7        -11.2789   -0.8583   59.0025 O.2     1  ZINC000740843182   -0.5000
      8 C8        -11.2506   -2.7974   57.6996 C.ar    1  ZINC000740843182   -0.1300
      9 C9        -12.2311   -3.0150   56.7304 C.ar    1  ZINC000740843182    0.0200
     10 C10       -12.6258   -4.3021   56.4296 C.ar    1  ZINC000740843182   -0.6800
     11 S11       -13.8634   -4.5785   55.2063 S.o2    1  ZINC000740843182    2.7000
     12 O12       -14.2668   -5.9341   55.3425 O.2     1  ZINC000740843182   -0.9400
     13 O13       -14.7675   -3.4858   55.2962 O.2     1  ZINC000740843182   -0.9500
     14 N14       -13.1274   -4.4560   53.7279 N.am    1  ZINC000740843182   -1.0900
     15 C15       -12.4681   -3.2070   53.3391 C.3     1  ZINC000740843182    0.0800
     16 C16       -10.9523   -3.1197   53.5278 C.3     1  ZINC000740843182   -0.1800
     17 C17       -11.5421   -3.2461   52.1217 C.3     1  ZINC000740843182   -0.1900
     18 C18       -12.0521   -5.3768   57.0858 C.ar    1  ZINC000740843182    0.0100
     19 C19       -11.0798   -5.1694   58.0475 C.ar    1  ZINC000740843182   -0.1200
     20 C20       -10.6716   -3.8868   58.3552 C.ar    1  ZINC000740843182    0.0100
     21 Br21       -9.3424   -3.6047   59.6703 Br      1  ZINC000740843182    0.0100
     22 C22        -9.7898    1.6794   55.3433 C.3     1  ZINC000740843182   -0.1400
     23 C23        -9.1562    1.6831   53.9506 C.3     1  ZINC000740843182    0.1000
     24 H24        -8.1504    2.0989   54.0100 H       1  ZINC000740843182    0.1000
     25 C25       -10.0057    2.5358   53.0061 C.3     1  ZINC000740843182   -0.1900
     26 O26        -9.0897    0.3447   53.4540 O.3     1  ZINC000740843182   -0.5600
     27 H27        -7.3782    2.7781   55.9819 H       1  ZINC000740843182    0.0600
     28 H28        -8.5332    3.1077   57.2955 H       1  ZINC000740843182    0.0600
     29 H29        -7.1737    1.9910   57.5652 H       1  ZINC000740843182    0.0500
     30 H30        -8.8353    0.5537   58.4273 H       1  ZINC000740843182    0.0700
     31 H31       -10.3781    1.1808   57.7987 H       1  ZINC000740843182    0.0700
     32 H32        -9.5606   -1.2399   56.4646 H       1  ZINC000740843182    0.4000
     33 H33       -12.6799   -2.1774   56.2172 H       1  ZINC000740843182    0.1500
     34 H34       -13.1329   -5.2114   53.1194 H       1  ZINC000740843182    0.4200
     35 H35       -13.0489   -2.2987   53.5006 H       1  ZINC000740843182    0.1400
     36 H36       -10.5355   -2.1540   53.8139 H       1  ZINC000740843182    0.1100
     37 H37       -10.4456   -3.9917   53.9412 H       1  ZINC000740843182    0.1000
     38 H38       -11.4234   -4.2012   51.6102 H       1  ZINC000740843182    0.1000
     39 H39       -11.5133   -2.3636   51.4827 H       1  ZINC000740843182    0.1100
     40 H40       -12.3652   -6.3823   56.8461 H       1  ZINC000740843182    0.1600
     41 H41       -10.6361   -6.0126   58.5559 H       1  ZINC000740843182    0.1500
     42 H42       -10.6589    1.0216   55.3453 H       1  ZINC000740843182    0.0700
     43 H43       -10.0993    2.6914   55.6043 H       1  ZINC000740843182    0.0800
     44 H44       -10.0563    3.5566   53.3849 H       1  ZINC000740843182    0.0700
     45 H45        -9.5543    2.5384   52.0139 H       1  ZINC000740843182    0.0600
     46 H46       -11.0115    2.1200   52.9466 H       1  ZINC000740843182    0.0600
     47 H47        -8.5418   -0.2463   53.9884 H       1  ZINC000740843182    0.3700
@<TRIPOS>BOND
     1     1     2    1
     2     1    27    1
     3     1    28    1
     4     1    29    1
     5     2     3    1
     6     2     4    1
     7     2    22    1
     8     4     5    1
     9     4    30    1
    10     4    31    1
    11     5     6   am
    12     5    32    1
    13     6     7    2
    14     6     8    1
    15     8    20   ar
    16     8     9   ar
    17     9    10   ar
    18     9    33    1
    19    10    11    1
    20    10    18   ar
    21    11    12    2
    22    11    13    2
    23    11    14   am
    24    14    15    1
    25    14    34    1
    26    15    17    1
    27    15    16    1
    28    15    35    1
    29    16    17    1
    30    16    36    1
    31    16    37    1
    32    17    38    1
    33    17    39    1
    34    18    19   ar
    35    18    40    1
    36    19    20   ar
    37    19    41    1
    38    20    21    1
    39    22    23    1
    40    22    42    1
    41    22    43    1
    42    23    24    1
    43    23    25    1
    44    23    26    1
    45    25    44    1
    46    25    45    1
    47    25    46    1
    48    26    47    1
@<TRIPOS>SUBSTRUCTURE
     1 ZINC000740843182        1 TEMP              0 ****  ****    0 ROOT


##########                                Name:    ZINC000545381384
##########                DOCK_Rotatable_Bonds:                   6
##########                         Heavy_Atoms:                  30
##########                    Molecular_Weight:             405.543
##########                DOCK_Rotatable_Bonds:                   6
##########                       Formal_Charge:                0.05
##########                     HBond_Acceptors:                   6
##########                        HBond_Donors:                   1
##########                         Heavy_Atoms:                  30
##########                          Grid_Score:          -35.797005
##########                     Grid_vdw_energy:          -35.630814
##########                      Grid_es_energy:           -0.166193
##########           Internal_energy_repulsive:           18.760361

@<TRIPOS>MOLECULE
ZINC000545381384
 61 64 1 0 0
SMALL
USER_CHARGES


@<TRIPOS>ATOM
      1 C1        -14.8947   -4.5213   54.7578 C.3     1  ZINC000545381384   -0.2000
      2 C2        -13.3887   -4.7908   54.7427 C.3     1  ZINC000545381384    0.0500
      3 N3        -12.6840   -3.6046   54.2385 N.3     1  ZINC000545381384   -0.5300
      4 C4        -11.7256   -3.9694   53.1834 C.3     1  ZINC000545381384    0.0500
      5 C5        -11.3074   -2.6983   52.4449 C.3     1  ZINC000545381384   -0.0700
      6 C6        -10.8646   -1.6488   53.4360 C.ar    1  ZINC000545381384    0.1800
      7 C7        -11.1943   -1.7479   54.7825 C.ar    1  ZINC000545381384   -0.0800
      8 C8        -11.9971   -2.9000   55.3257 C.3     1  ZINC000545381384    0.0900
      9 C9        -10.7740   -0.7599   55.6695 C.ar    1  ZINC000545381384   -0.0700
     10 C10       -11.1118   -0.8355   57.1069 C.2     1  ZINC000545381384    0.5800
     11 O11       -12.2432   -0.5924   57.4790 O.2     1  ZINC000545381384   -0.4800
     12 N12       -10.1653   -1.1740   58.0046 N.am    1  ZINC000545381384   -0.6400
     13 C13       -10.4840   -1.2469   59.3591 C.2     1  ZINC000545381384    0.3000
     14 C14       -11.2413   -0.3565   60.0574 C.2     1  ZINC000545381384   -0.2700
     15 C15       -11.3149   -0.8010   61.3800 C.2     1  ZINC000545381384    0.1000
     16 C16       -12.0554   -0.1162   62.4996 C.3     1  ZINC000545381384   -0.0300
     17 C17       -11.1178    0.8652   63.2059 C.3     1  ZINC000545381384   -0.0600
     18 C18       -11.7752    1.3599   64.4958 C.3     1  ZINC000545381384   -0.1500
     19 C19        -9.8016    0.1613   63.5417 C.3     1  ZINC000545381384   -0.1400
     20 C20       -10.8392    2.0559   62.2863 C.3     1  ZINC000545381384   -0.1400
     21 N21       -10.6325   -1.9127   61.4817 N.2     1  ZINC000545381384   -0.2700
     22 N22       -10.1009   -2.2222   60.2232 N.pl3   1  ZINC000545381384   -0.3900
     23 C23        -9.2723   -3.3860   59.8990 C.3     1  ZINC000545381384    0.1000
     24 C24       -10.0134    0.3190   55.1564 C.ar    1  ZINC000545381384   -0.0700
     25 C25        -9.5527    1.3509   55.9839 C.ar    1  ZINC000545381384   -0.1100
     26 C26        -8.8226    2.3691   55.4481 C.ar    1  ZINC000545381384   -0.1000
     27 C27        -8.5285    2.3971   54.0863 C.ar    1  ZINC000545381384   -0.1000
     28 C28        -8.9613    1.4117   53.2541 C.ar    1  ZINC000545381384   -0.0900
     29 C29        -9.7177    0.3434   53.7709 C.ar    1  ZINC000545381384    0.1400
     30 N30       -10.1559   -0.6360   52.9809 N.ar    1  ZINC000545381384   -0.4600
     31 H31       -15.1017   -3.6501   55.3793 H       1  ZINC000545381384    0.0600
     32 H32       -15.2403   -4.3329   53.7414 H       1  ZINC000545381384    0.0600
     33 H33       -15.4151   -5.3889   55.1636 H       1  ZINC000545381384    0.0700
     34 H34       -13.0491   -5.0124   55.7546 H       1  ZINC000545381384    0.0900
     35 H35       -13.1783   -5.6414   54.0944 H       1  ZINC000545381384    0.0800
     36 H36       -10.8490   -4.4378   53.6312 H       1  ZINC000545381384    0.0500
     37 H37       -12.1963   -4.6607   52.4845 H       1  ZINC000545381384    0.0900
     38 H38       -10.4841   -2.9273   51.7681 H       1  ZINC000545381384    0.1000
     39 H39       -12.1521   -2.3195   51.8696 H       1  ZINC000545381384    0.1000
     40 H40       -12.7352   -2.5227   56.0334 H       1  ZINC000545381384    0.0900
     41 H41       -11.3307   -3.5926   55.8398 H       1  ZINC000545381384    0.0700
     42 H42        -9.2621   -1.3670   57.7079 H       1  ZINC000545381384    0.4100
     43 H43       -11.7028    0.5352   59.6597 H       1  ZINC000545381384    0.1700
     44 H44       -12.9089    0.4258   62.0926 H       1  ZINC000545381384    0.0800
     45 H45       -12.4054   -0.8619   63.2134 H       1  ZINC000545381384    0.0800
     46 H46       -11.9737    0.5117   65.1510 H       1  ZINC000545381384    0.0500
     47 H47       -11.1072    2.0591   64.9991 H       1  ZINC000545381384    0.0500
     48 H48       -12.7129    1.8615   64.2567 H       1  ZINC000545381384    0.0800
     49 H49        -9.3333   -0.1912   62.6227 H       1  ZINC000545381384    0.0600
     50 H50        -9.1337    0.8604   64.0449 H       1  ZINC000545381384    0.0600
     51 H51       -10.0001   -0.6870   64.1968 H       1  ZINC000545381384    0.0600
     52 H52       -11.7770    2.5574   62.0472 H       1  ZINC000545381384    0.0500
     53 H53       -10.1713    2.7550   62.7895 H       1  ZINC000545381384    0.0500
     54 H54       -10.3710    1.7034   61.3673 H       1  ZINC000545381384    0.0500
     55 H55        -9.9122   -4.2143   59.5945 H       1  ZINC000545381384    0.0800
     56 H56        -8.5934   -3.1331   59.0846 H       1  ZINC000545381384    0.0800
     57 H57        -8.6947   -3.6766   60.7764 H       1  ZINC000545381384    0.1000
     58 H58        -9.7752    1.3399   57.0407 H       1  ZINC000545381384    0.1300
     59 H59        -8.4676    3.1643   56.0868 H       1  ZINC000545381384    0.1300
     60 H60        -7.9478    3.2146   53.6849 H       1  ZINC000545381384    0.1400
     61 H61        -8.7254    1.4492   52.2008 H       1  ZINC000545381384    0.1400
@<TRIPOS>BOND
     1     1     2    1
     2     1    31    1
     3     1    32    1
     4     1    33    1
     5     2     3    1
     6     2    34    1
     7     2    35    1
     8     3     8    1
     9     3     4    1
    10     4     5    1
    11     4    36    1
    12     4    37    1
    13     5     6    1
    14     5    38    1
    15     5    39    1
    16     6    30   ar
    17     6     7   ar
    18     7     8    1
    19     7     9   ar
    20     8    40    1
    21     8    41    1
    22     9    10    1
    23     9    24   ar
    24    10    11    2
    25    10    12   am
    26    12    13    1
    27    12    42    1
    28    13    22    1
    29    13    14    2
    30    14    15    1
    31    14    43    1
    32    15    16    1
    33    15    21    2
    34    16    17    1
    35    16    44    1
    36    16    45    1
    37    17    18    1
    38    17    19    1
    39    17    20    1
    40    18    46    1
    41    18    47    1
    42    18    48    1
    43    19    49    1
    44    19    50    1
    45    19    51    1
    46    20    52    1
    47    20    53    1
    48    20    54    1
    49    21    22    1
    50    22    23    1
    51    23    55    1
    52    23    56    1
    53    23    57    1
    54    24    29   ar
    55    24    25   ar
    56    25    26   ar
    57    25    58    1
    58    26    27   ar
    59    26    59    1
    60    27    28   ar
    61    27    60    1
    62    28    29   ar
    63    28    61    1
    64    29    30   ar
@<TRIPOS>SUBSTRUCTURE
     1 ZINC000545381384        1 TEMP              0 ****  ****    0 ROOT


##########                                Name:    ZINC000410354665
##########                DOCK_Rotatable_Bonds:                   7
##########                         Heavy_Atoms:                  29
##########                    Molecular_Weight:             417.889
##########                DOCK_Rotatable_Bonds:                   7
##########                       Formal_Charge:        -3.72529e-08
##########                     HBond_Acceptors:                   7
##########                        HBond_Donors:                   1
##########                         Heavy_Atoms:                  29
##########                          Grid_Score:          -35.785419
##########                     Grid_vdw_energy:          -35.819420
##########                      Grid_es_energy:            0.034001
##########           Internal_energy_repulsive:            8.363537

@<TRIPOS>MOLECULE
ZINC000410354665
 53 56 1 0 0
SMALL
USER_CHARGES


@<TRIPOS>ATOM
      1 C1        -11.7020   -3.3402   54.2073 C.3     1  ZINC000410354665    0.0200
      2 O2        -12.1584   -1.9901   54.3116 O.3     1  ZINC000410354665   -0.3000
      3 C3        -11.2077   -1.0238   54.4224 C.ar    1  ZINC000410354665    0.0900
      4 C4        -10.6303   -0.4899   53.2871 C.ar    1  ZINC000410354665   -0.1100
      5 C5         -9.6540    0.5034   53.4047 C.ar    1  ZINC000410354665   -0.1400
      6 C6         -9.0340    1.0779   52.1945 C.2     1  ZINC000410354665    0.5700
      7 O7         -9.5289    2.0525   51.6621 O.2     1  ZINC000410354665   -0.5300
      8 N8         -7.9194    0.5220   51.6798 N.am    1  ZINC000410354665   -0.7200
      9 C9         -7.3030    1.0932   50.4797 C.3     1  ZINC000410354665    0.1700
     10 C10        -6.0161    1.7817   50.8551 C.ar    1  ZINC000410354665   -0.1000
     11 C11        -5.9510    2.5415   52.0079 C.ar    1  ZINC000410354665   -0.0900
     12 C12        -4.7721    3.1767   52.3544 C.ar    1  ZINC000410354665   -0.0300
     13 Cl13       -4.6941    4.1307   53.8028 Cl      1  ZINC000410354665   -0.0400
     14 C14        -3.6516    3.0515   51.5455 C.ar    1  ZINC000410354665    0.0700
     15 O15        -2.5004    3.6885   51.8951 O.3     1  ZINC000410354665   -0.2900
     16 C16        -1.2982    3.2393   51.2605 C.3     1  ZINC000410354665    0.0200
     17 C17        -1.5728    3.0954   49.7575 C.3     1  ZINC000410354665    0.0200
     18 O18        -2.6284    2.1439   49.5837 O.3     1  ZINC000410354665   -0.3000
     19 C19        -3.7169    2.2842   50.3888 C.ar    1  ZINC000410354665    0.0600
     20 C20        -4.9013    1.6474   50.0491 C.ar    1  ZINC000410354665   -0.0900
     21 C21        -9.2666    0.9515   54.6695 C.ar    1  ZINC000410354665   -0.0800
     22 C22        -9.8464    0.4141   55.7985 C.ar    1  ZINC000410354665   -0.1900
     23 C23       -10.8202   -0.5682   55.6820 C.ar    1  ZINC000410354665    0.1400
     24 O24       -11.3885   -1.0945   56.7973 O.3     1  ZINC000410354665   -0.2900
     25 C25       -10.6116   -2.0379   57.5378 C.3     1  ZINC000410354665    0.0700
     26 C26        -9.6517   -1.3064   58.5086 C.3     1  ZINC000410354665   -0.1500
     27 C27        -9.3776   -2.3796   59.5915 C.3     1  ZINC000410354665   -0.1200
     28 C28       -10.7335   -3.0938   59.7681 C.3     1  ZINC000410354665   -0.1200
     29 C29       -11.5181   -2.8765   58.4623 C.3     1  ZINC000410354665   -0.1200
     30 H30       -11.0742   -3.4442   53.3224 H       1  ZINC000410354665    0.0600
     31 H31       -11.1245   -3.5981   55.0949 H       1  ZINC000410354665    0.0600
     32 H32       -12.5595   -4.0082   54.1250 H       1  ZINC000410354665    0.1000
     33 H33       -10.9322   -0.8392   52.3108 H       1  ZINC000410354665    0.1500
     34 H34        -7.5252   -0.2563   52.1038 H       1  ZINC000410354665    0.4000
     35 H35        -7.0942    0.2976   49.7646 H       1  ZINC000410354665    0.0800
     36 H36        -7.9841    1.8160   50.0304 H       1  ZINC000410354665    0.0900
     37 H37        -6.8221    2.6398   52.6387 H       1  ZINC000410354665    0.1500
     38 H38        -0.5036    3.9680   51.4209 H       1  ZINC000410354665    0.1300
     39 H39        -1.0025    2.2752   51.6741 H       1  ZINC000410354665    0.0800
     40 H40        -1.8742    4.0583   49.3450 H       1  ZINC000410354665    0.0800
     41 H41        -0.6737    2.7435   49.2517 H       1  ZINC000410354665    0.1300
     42 H42        -4.9536    1.0489   49.1516 H       1  ZINC000410354665    0.1400
     43 H43        -8.5124    1.7189   54.7628 H       1  ZINC000410354665    0.1300
     44 H44        -9.5457    0.7613   56.7760 H       1  ZINC000410354665    0.1400
     45 H45       -10.0531   -2.6852   56.8616 H       1  ZINC000410354665    0.0800
     46 H46        -8.7290   -1.0254   58.0009 H       1  ZINC000410354665    0.0700
     47 H47       -10.1355   -0.4324   58.9447 H       1  ZINC000410354665    0.0800
     48 H48        -8.6180   -3.0821   59.2486 H       1  ZINC000410354665    0.0700
     49 H49        -9.0696   -1.9092   60.5253 H       1  ZINC000410354665    0.0700
     50 H50       -10.5752   -4.1591   59.9358 H       1  ZINC000410354665    0.0700
     51 H51       -11.2775   -2.6599   60.6071 H       1  ZINC000410354665    0.0700
     52 H52       -12.4429   -2.3374   58.6677 H       1  ZINC000410354665    0.0800
     53 H53       -11.7407   -3.8365   57.9964 H       1  ZINC000410354665    0.0700
@<TRIPOS>BOND
     1     1     2    1
     2     1    30    1
     3     1    31    1
     4     1    32    1
     5     2     3    1
     6     3    23   ar
     7     3     4   ar
     8     4     5   ar
     9     4    33    1
    10     5     6    1
    11     5    21   ar
    12     6     7    2
    13     6     8   am
    14     8     9    1
    15     8    34    1
    16     9    10    1
    17     9    35    1
    18     9    36    1
    19    10    20   ar
    20    10    11   ar
    21    11    12   ar
    22    11    37    1
    23    12    13    1
    24    12    14   ar
    25    14    19   ar
    26    14    15    1
    27    15    16    1
    28    16    17    1
    29    16    38    1
    30    16    39    1
    31    17    18    1
    32    17    40    1
    33    17    41    1
    34    18    19    1
    35    19    20   ar
    36    20    42    1
    37    21    22   ar
    38    21    43    1
    39    22    23   ar
    40    22    44    1
    41    23    24    1
    42    24    25    1
    43    25    29    1
    44    25    26    1
    45    25    45    1
    46    26    27    1
    47    26    46    1
    48    26    47    1
    49    27    28    1
    50    27    48    1
    51    27    49    1
    52    28    29    1
    53    28    50    1
    54    28    51    1
    55    29    52    1
    56    29    53    1
@<TRIPOS>SUBSTRUCTURE
     1 ZINC000410354665        1 TEMP              0 ****  ****    0 ROOT


##########                                Name:    ZINC001490207225
##########                DOCK_Rotatable_Bonds:                   7
##########                         Heavy_Atoms:                  24
##########                    Molecular_Weight:             334.378
##########                DOCK_Rotatable_Bonds:                   7
##########                       Formal_Charge:           -0.010001
##########                     HBond_Acceptors:                   9
##########                        HBond_Donors:                   3
##########                         Heavy_Atoms:                  24
##########                          Grid_Score:          -35.746639
##########                     Grid_vdw_energy:          -33.524673
##########                      Grid_es_energy:           -2.221964
##########           Internal_energy_repulsive:            4.505231

@<TRIPOS>MOLECULE
ZINC001490207225
 46 48 1 0 0
SMALL
USER_CHARGES


@<TRIPOS>ATOM
      1 C1        -13.2819   -3.1969   53.2600 C.3     1  ZINC001490207225    0.0900
      2 N2        -13.0773   -3.7755   54.5903 N.pl3   1  ZINC001490207225   -0.3600
      3 C3        -11.9117   -3.8216   55.2549 C.2     1  ZINC001490207225    0.1300
      4 C4        -12.1497   -4.4437   56.4640 C.2     1  ZINC001490207225   -0.3000
      5 C5        -11.1569   -4.7128   57.5203 C.2     1  ZINC001490207225    0.6200
      6 O6        -10.5579   -5.7709   57.5364 O.2     1  ZINC001490207225   -0.5400
      7 N7        -10.9134   -3.7859   58.4680 N.am    1  ZINC001490207225   -0.6200
      8 C8         -9.9552   -3.8956   59.5800 C.3     1  ZINC001490207225    0.1100
      9 C9        -10.5464   -3.0838   60.7443 C.3     1  ZINC001490207225   -0.1100
     10 H10       -10.9846   -3.7246   61.5095 H       1  ZINC001490207225    0.1000
     11 C11        -9.4541   -2.1577   61.3194 C.3     1  ZINC001490207225    0.1000
     12 N12       -10.1324   -0.8567   61.5219 N.am    1  ZINC001490207225   -0.6200
     13 C13        -9.9868    0.0002   62.5520 C.2     1  ZINC001490207225    0.5300
     14 O14       -10.6193    1.0348   62.5742 O.2     1  ZINC001490207225   -0.5300
     15 C15        -9.0381   -0.3272   63.6761 C.3     1  ZINC001490207225    0.1200
     16 N16        -8.8423    0.8603   64.5115 N.am    1  ZINC001490207225   -0.7400
     17 C17        -8.5357    0.7230   65.8167 C.2     1  ZINC001490207225    0.7100
     18 N18        -8.3541    1.8154   66.5848 N.am    1  ZINC001490207225   -0.8600
     19 O19        -8.4230   -0.3864   66.3013 O.2     1  ZINC001490207225   -0.5900
     20 C20       -11.0070   -0.7111   60.3355 C.3     1  ZINC001490207225    0.1100
     21 C21       -11.5961   -2.1444   60.0956 C.3     1  ZINC001490207225   -0.0800
     22 C22       -12.9975   -2.2972   60.6903 C.3     1  ZINC001490207225   -0.1300
     23 C23       -11.5489   -2.4637   58.5895 C.3     1  ZINC001490207225    0.1000
     24 C24       -13.5230   -4.7741   56.4999 C.2     1  ZINC001490207225    0.0700
     25 N25       -14.0651   -4.3679   55.3851 N.2     1  ZINC001490207225   -0.2900
     26 H26       -13.5357   -2.1414   53.3580 H       1  ZINC001490207225    0.0800
     27 H27       -12.3676   -3.2979   52.6754 H       1  ZINC001490207225    0.0900
     28 H28       -14.0946   -3.7209   52.7570 H       1  ZINC001490207225    0.1000
     29 H29       -10.9621   -3.4420   54.9074 H       1  ZINC001490207225    0.1900
     30 H30        -9.8395   -4.9392   59.8725 H       1  ZINC001490207225    0.0900
     31 H31        -8.9915   -3.4800   59.2857 H       1  ZINC001490207225    0.0800
     32 H32        -9.0877   -2.5468   62.2693 H       1  ZINC001490207225    0.0900
     33 H33        -8.6337   -2.0518   60.6095 H       1  ZINC001490207225    0.0900
     34 H34        -9.4555   -1.1322   64.2810 H       1  ZINC001490207225    0.1000
     35 H35        -8.0800   -0.6426   63.2628 H       1  ZINC001490207225    0.1000
     36 H36        -8.9334    1.7454   64.1252 H       1  ZINC001490207225    0.4100
     37 H37        -8.1323    1.7166   67.5239 H       1  ZINC001490207225    0.4000
     38 H38        -8.4452    2.7004   66.1985 H       1  ZINC001490207225    0.4200
     39 H39       -11.8134   -0.0076   60.5422 H       1  ZINC001490207225    0.0900
     40 H40       -10.4263   -0.3819   59.4738 H       1  ZINC001490207225    0.0800
     41 H41       -13.6728   -1.5848   60.2164 H       1  ZINC001490207225    0.0700
     42 H42       -13.3578   -3.3109   60.5157 H       1  ZINC001490207225    0.0600
     43 H43       -12.9602   -2.1044   61.7624 H       1  ZINC001490207225    0.0600
     44 H44       -10.9410   -1.7237   58.0691 H       1  ZINC001490207225    0.0800
     45 H45       -12.5581   -2.4757   58.1778 H       1  ZINC001490207225    0.0900
     46 H46       -14.0350   -5.2717   57.3102 H       1  ZINC001490207225    0.2000
@<TRIPOS>BOND
     1     1     2    1
     2     1    26    1
     3     1    27    1
     4     1    28    1
     5     2    25    1
     6     2     3    1
     7     3     4    2
     8     3    29    1
     9     4     5    1
    10     4    24    1
    11     5     6    2
    12     5     7   am
    13     7    23    1
    14     7     8    1
    15     8     9    1
    16     8    30    1
    17     8    31    1
    18     9    10    1
    19     9    21    1
    20     9    11    1
    21    11    12    1
    22    11    32    1
    23    11    33    1
    24    12    13   am
    25    12    20    1
    26    13    14    2
    27    13    15    1
    28    15    16    1
    29    15    34    1
    30    15    35    1
    31    16    17   am
    32    16    36    1
    33    17    18   am
    34    17    19    2
    35    18    37    1
    36    18    38    1
    37    20    21    1
    38    20    39    1
    39    20    40    1
    40    21    22    1
    41    21    23    1
    42    22    41    1
    43    22    42    1
    44    22    43    1
    45    23    44    1
    46    23    45    1
    47    24    25    2
    48    24    46    1
@<TRIPOS>SUBSTRUCTURE
     1 ZINC001490207225        1 TEMP              0 ****  ****    0 ROOT


##########                                Name:    ZINC000766421809
##########                DOCK_Rotatable_Bonds:                   7
##########                         Heavy_Atoms:                  26
##########                    Molecular_Weight:             358.372
##########                DOCK_Rotatable_Bonds:                   7
##########                       Formal_Charge:         4.61936e-07
##########                     HBond_Acceptors:                   8
##########                        HBond_Donors:                   0
##########                         Heavy_Atoms:                  26
##########                          Grid_Score:          -35.723030
##########                     Grid_vdw_energy:          -35.703865
##########                      Grid_es_energy:           -0.019165
##########           Internal_energy_repulsive:            6.435620

@<TRIPOS>MOLECULE
ZINC000766421809
 45 47 1 0 0
SMALL
USER_CHARGES


@<TRIPOS>ATOM
      1 C1        -14.7606   -1.0583   50.2661 C.3     1  ZINC000766421809   -0.0700
      2 C2        -14.0355   -1.9101   51.2760 C.2     1  ZINC000766421809    0.0700
      3 N3        -12.7587   -1.8497   51.5550 N.2     1  ZINC000766421809   -0.2900
      4 N4        -12.4814   -2.8021   52.5441 N.pl3   1  ZINC000766421809   -0.3700
      5 C5        -11.1708   -3.0656   53.1435 C.3     1  ZINC000766421809    0.1000
      6 C6        -13.6345   -3.4341   52.8472 C.2     1  ZINC000766421809    0.0700
      7 C7        -13.8040   -4.5356   53.8615 C.3     1  ZINC000766421809    0.1400
      8 O8        -13.0639   -4.2029   55.0655 O.3     1  ZINC000766421809   -0.3400
      9 C9        -13.1661   -5.0542   56.0984 C.2     1  ZINC000766421809    0.4700
     10 O10       -13.7902   -6.0814   55.9752 O.2     1  ZINC000766421809   -0.5000
     11 C11       -12.5022   -4.7286   57.4115 C.3     1  ZINC000766421809   -0.1100
     12 C12       -11.3193   -3.7898   57.1659 C.3     1  ZINC000766421809   -0.0200
     13 C13       -10.7168   -3.3847   58.4865 C.2     1  ZINC000766421809    0.1900
     14 N14       -10.9613   -2.2804   59.1469 N.2     1  ZINC000766421809   -0.4700
     15 C15       -10.2024   -2.3496   60.2640 C.2     1  ZINC000766421809    0.2200
     16 C16       -10.1265   -1.3327   61.3420 C.ar    1  ZINC000766421809   -0.0300
     17 C17        -9.2068   -1.4804   62.3782 C.ar    1  ZINC000766421809   -0.0500
     18 C18        -9.1392   -0.5322   63.3784 C.ar    1  ZINC000766421809   -0.1500
     19 C19        -9.9845    0.5651   63.3534 C.ar    1  ZINC000766421809    0.1200
     20 F20        -9.9154    1.4910   64.3349 F       1  ZINC000766421809   -0.1300
     21 C21       -10.9004    0.7161   62.3244 C.ar    1  ZINC000766421809   -0.1200
     22 C22       -11.8166    1.9124   62.3020 C.3     1  ZINC000766421809   -0.1200
     23 C23       -10.9710   -0.2243   61.3177 C.ar    1  ZINC000766421809   -0.0600
     24 N24        -9.5481   -3.4810   60.2166 N.2     1  ZINC000766421809   -0.3700
     25 O25        -9.8370   -4.0875   59.2067 O.3     1  ZINC000766421809    0.0900
     26 C26       -14.6125   -2.8977   52.0811 C.2     1  ZINC000766421809   -0.2400
     27 H27       -15.1229   -0.1509   50.7493 H       1  ZINC000766421809    0.0800
     28 H28       -14.0785   -0.7922   49.4585 H       1  ZINC000766421809    0.0700
     29 H29       -15.6048   -1.6155   49.8600 H       1  ZINC000766421809    0.0800
     30 H30       -11.0378   -2.4310   54.0196 H       1  ZINC000766421809    0.0800
     31 H31       -11.1112   -4.1126   53.4408 H       1  ZINC000766421809    0.0900
     32 H32       -10.3884   -2.8494   52.4160 H       1  ZINC000766421809    0.0900
     33 H33       -14.8609   -4.6469   54.1037 H       1  ZINC000766421809    0.0900
     34 H34       -13.4255   -5.4708   53.4490 H       1  ZINC000766421809    0.0900
     35 H35       -13.2208   -4.2426   58.0714 H       1  ZINC000766421809    0.1200
     36 H36       -12.1460   -5.6480   57.8763 H       1  ZINC000766421809    0.1200
     37 H37       -10.5675   -4.3020   56.5655 H       1  ZINC000766421809    0.1200
     38 H38       -11.6640   -2.9018   56.6362 H       1  ZINC000766421809    0.1200
     39 H39        -8.5479   -2.3360   62.3987 H       1  ZINC000766421809    0.1500
     40 H40        -8.4266   -0.6459   64.1819 H       1  ZINC000766421809    0.1500
     41 H41       -11.3404    2.7246   61.7530 H       1  ZINC000766421809    0.0800
     42 H42       -12.7532    1.6437   61.8134 H       1  ZINC000766421809    0.0800
     43 H43       -12.0191    2.2341   63.3236 H       1  ZINC000766421809    0.0700
     44 H44       -11.6851   -0.1059   60.5162 H       1  ZINC000766421809    0.1400
     45 H45       -15.6534   -3.1856   52.0859 H       1  ZINC000766421809    0.1500
@<TRIPOS>BOND
     1     1     2    1
     2     1    27    1
     3     1    28    1
     4     1    29    1
     5     2    26    1
     6     2     3    2
     7     3     4    1
     8     4     5    1
     9     4     6    1
    10     5    30    1
    11     5    31    1
    12     5    32    1
    13     6     7    1
    14     6    26    2
    15     7     8    1
    16     7    33    1
    17     7    34    1
    18     8     9    1
    19     9    10    2
    20     9    11    1
    21    11    12    1
    22    11    35    1
    23    11    36    1
    24    12    13    1
    25    12    37    1
    26    12    38    1
    27    13    25    1
    28    13    14    2
    29    14    15    1
    30    15    16    1
    31    15    24    2
    32    16    23   ar
    33    16    17   ar
    34    17    18   ar
    35    17    39    1
    36    18    19   ar
    37    18    40    1
    38    19    20    1
    39    19    21   ar
    40    21    22    1
    41    21    23   ar
    42    22    41    1
    43    22    42    1
    44    22    43    1
    45    23    44    1
    46    24    25    1
    47    26    45    1
@<TRIPOS>SUBSTRUCTURE
     1 ZINC000766421809        1 TEMP              0 ****  ****    0 ROOT


##########                                Name:    ZINC000561219098
##########                DOCK_Rotatable_Bonds:                   4
##########                         Heavy_Atoms:                  28
##########                    Molecular_Weight:             423.273
##########                DOCK_Rotatable_Bonds:                   4
##########                       Formal_Charge:          0.00999953
##########                     HBond_Acceptors:                   9
##########                        HBond_Donors:                   1
##########                         Heavy_Atoms:                  28
##########                          Grid_Score:          -35.679001
##########                     Grid_vdw_energy:          -36.341541
##########                      Grid_es_energy:            0.662539
##########           Internal_energy_repulsive:           16.286928

@<TRIPOS>MOLECULE
ZINC000561219098
 45 48 1 0 0
SMALL
USER_CHARGES


@<TRIPOS>ATOM
      1 C1         -6.4530    2.6351   51.8135 C.3     1  ZINC000561219098    0.0700
      2 N2         -7.2950    1.4388   51.8923 N.pl3   1  ZINC000561219098   -0.4500
      3 C3         -6.9368    0.1891   51.4793 C.2     1  ZINC000561219098   -0.0100
      4 C4         -7.9654   -0.6484   51.7100 C.2     1  ZINC000561219098   -0.1700
      5 C5         -9.0091    0.1142   52.2921 C.2     1  ZINC000561219098   -0.1100
      6 C6        -10.3399   -0.3907   52.7164 C.2     1  ZINC000561219098    0.1600
      7 N7        -11.3273    0.3432   53.1863 N.2     1  ZINC000561219098   -0.2700
      8 N8        -12.4125   -0.4944   53.4722 N.pl3   1  ZINC000561219098   -0.4700
      9 C9        -12.0500   -1.7747   53.1579 C.2     1  ZINC000561219098    0.0300
     10 C10       -12.8858   -2.9781   53.2997 C.2     1  ZINC000561219098    0.5900
     11 O11       -13.6108   -3.3260   52.3872 O.2     1  ZINC000561219098   -0.5000
     12 N12       -12.8476   -3.6944   54.4406 N.am    1  ZINC000561219098   -0.6100
     13 C13       -13.6737   -4.9008   54.6058 C.3     1  ZINC000561219098    0.0500
     14 C14       -14.4337   -4.7886   55.9324 C.3     1  ZINC000561219098    0.0500
     15 O15       -13.5068   -4.5052   56.9833 O.3     1  ZINC000561219098   -0.3700
     16 C16       -12.8207   -3.2594   56.8383 C.3     1  ZINC000561219098    0.1200
     17 H17       -13.5469   -2.4490   56.7748 H       1  ZINC000561219098    0.0900
     18 C18       -11.9222   -3.0383   58.0277 C.ar    1  ZINC000561219098   -0.0500
     19 C19       -11.9773   -1.8451   58.7226 C.ar    1  ZINC000561219098   -0.1000
     20 C20       -11.1523   -1.6417   59.8156 C.ar    1  ZINC000561219098    0.1200
     21 F21       -11.2062   -0.4755   60.4954 F       1  ZINC000561219098   -0.1200
     22 C22       -10.2717   -2.6351   60.2121 C.ar    1  ZINC000561219098   -0.0600
     23 Cl23       -9.2369   -2.3817   61.5828 Cl      1  ZINC000561219098   -0.0300
     24 C24       -10.2176   -3.8287   59.5156 C.ar    1  ZINC000561219098   -0.0700
     25 C25       -11.0463   -4.0324   58.4270 C.ar    1  ZINC000561219098   -0.0300
     26 Cl26      -10.9785   -5.5311   57.5534 Cl      1  ZINC000561219098   -0.0400
     27 C27       -11.9739   -3.2965   55.5559 C.3     1  ZINC000561219098    0.0900
     28 C28       -10.7589   -1.7284   52.6784 C.2     1  ZINC000561219098   -0.1700
     29 C29        -8.5602    1.3934   52.3951 C.2     1  ZINC000561219098    0.0300
     30 H30        -5.8658    2.7270   52.7273 H       1  ZINC000561219098    0.0800
     31 H31        -5.7829    2.5520   50.9578 H       1  ZINC000561219098    0.0900
     32 H32        -7.0837    3.5164   51.6967 H       1  ZINC000561219098    0.0900
     33 H33        -5.9879   -0.0827   51.0410 H       1  ZINC000561219098    0.1700
     34 H34        -7.9906   -1.7059   51.4919 H       1  ZINC000561219098    0.1400
     35 H35       -13.2697   -0.2156   53.8305 H       1  ZINC000561219098    0.4400
     36 H36       -14.3830   -4.9757   53.7815 H       1  ZINC000561219098    0.1000
     37 H37       -13.0348   -5.7838   54.6222 H       1  ZINC000561219098    0.0900
     38 H38       -15.1658   -3.9838   55.8656 H       1  ZINC000561219098    0.0700
     39 H39       -14.9436   -5.7292   56.1405 H       1  ZINC000561219098    0.1200
     40 H40       -12.6638   -1.0710   58.4127 H       1  ZINC000561219098    0.1600
     41 H41        -9.5310   -4.6033   59.8240 H       1  ZINC000561219098    0.1600
     42 H42       -11.1648   -4.0177   55.6710 H       1  ZINC000561219098    0.0900
     43 H43       -11.5596   -2.3073   55.3608 H       1  ZINC000561219098    0.1100
     44 H44       -10.1733   -2.5708   52.3410 H       1  ZINC000561219098    0.1600
     45 H45        -9.1130    2.2291   52.7983 H       1  ZINC000561219098    0.1700
@<TRIPOS>BOND
     1     1     2    1
     2     1    30    1
     3     1    31    1
     4     1    32    1
     5     2    29    1
     6     2     3    1
     7     3     4    2
     8     3    33    1
     9     4     5    1
    10     4    34    1
    11     5     6    1
    12     5    29    2
    13     6    28    1
    14     6     7    2
    15     7     8    1
    16     8     9    1
    17     8    35    1
    18     9    10    1
    19     9    28    2
    20    10    11    2
    21    10    12   am
    22    12    27    1
    23    12    13    1
    24    13    14    1
    25    13    36    1
    26    13    37    1
    27    14    15    1
    28    14    38    1
    29    14    39    1
    30    15    16    1
    31    16    17    1
    32    16    18    1
    33    16    27    1
    34    18    25   ar
    35    18    19   ar
    36    19    20   ar
    37    19    40    1
    38    20    21    1
    39    20    22   ar
    40    22    23    1
    41    22    24   ar
    42    24    25   ar
    43    24    41    1
    44    25    26    1
    45    27    42    1
    46    27    43    1
    47    28    44    1
    48    29    45    1
@<TRIPOS>SUBSTRUCTURE
     1 ZINC000561219098        1 TEMP              0 ****  ****    0 ROOT


##########                                Name:    ZINC000564088286
##########                DOCK_Rotatable_Bonds:                   6
##########                         Heavy_Atoms:                  25
##########                    Molecular_Weight:             398.934
##########                DOCK_Rotatable_Bonds:                   6
##########                       Formal_Charge:               -0.05
##########                     HBond_Acceptors:                   8
##########                        HBond_Donors:                   1
##########                         Heavy_Atoms:                  25
##########                          Grid_Score:          -35.652264
##########                     Grid_vdw_energy:          -34.550957
##########                      Grid_es_energy:           -1.101307
##########           Internal_energy_repulsive:           12.783813

@<TRIPOS>MOLECULE
ZINC000564088286
 44 46 1 0 0
SMALL
USER_CHARGES


@<TRIPOS>ATOM
      1 C1         -6.4887    1.5977   65.5968 C.3     1  ZINC000564088286   -0.1600
      2 C2         -6.7348    0.9524   66.9622 C.3     1  ZINC000564088286    0.1100
      3 N3         -8.0515    1.3555   67.4624 N.am    1  ZINC000564088286   -1.1200
      4 S4         -9.3654    0.3779   67.2164 S.o2    1  ZINC000564088286    2.7000
      5 O5         -9.0105   -0.9042   67.7159 O.2     1  ZINC000564088286   -0.9600
      6 O6        -10.4974    1.1044   67.6745 O.2     1  ZINC000564088286   -0.9600
      7 C7         -9.5618    0.1965   65.4749 C.ar    1  ZINC000564088286   -0.6800
      8 C8        -10.1675    1.1983   64.7396 C.ar    1  ZINC000564088286   -0.0200
      9 C9        -10.3216    1.0560   63.3733 C.ar    1  ZINC000564088286   -0.1300
     10 C10        -9.8698   -0.0879   62.7421 C.ar    1  ZINC000564088286   -0.0100
     11 C11       -10.0383   -0.2433   61.2527 C.3     1  ZINC000564088286   -0.1100
     12 C12       -11.4035   -0.8095   60.9581 C.2     1  ZINC000564088286    0.5200
     13 O13       -12.2275   -0.8974   61.8436 O.2     1  ZINC000564088286   -0.5200
     14 N14       -11.7088   -1.2180   59.7106 N.am    1  ZINC000564088286   -0.6200
     15 C15       -10.7245   -1.1201   58.6222 C.3     1  ZINC000564088286    0.1200
     16 C16       -10.3685   -2.5356   58.1574 C.3     1  ZINC000564088286   -0.0700
     17 C17       -11.6413   -3.3412   58.0048 C.2     1  ZINC000564088286   -0.1600
     18 C18       -12.8285   -3.0238   58.5542 C.2     1  ZINC000564088286   -0.1200
     19 C19       -13.8410   -3.9354   58.2698 C.2     1  ZINC000564088286   -0.1100
     20 C20       -13.4899   -4.9642   57.5029 C.2     1  ZINC000564088286   -0.1500
     21 Cl21      -14.5501   -6.2412   56.9943 Cl      1  ZINC000564088286   -0.0100
     22 S22       -11.7887   -4.8323   57.0834 S.3     1  ZINC000564088286    0.1600
     23 C23       -13.0321   -1.7788   59.4032 C.3     1  ZINC000564088286    0.1700
     24 C24        -9.2630   -1.0891   63.4773 C.ar    1  ZINC000564088286   -0.1300
     25 C25        -9.1053   -0.9451   64.8430 C.ar    1  ZINC000564088286   -0.0200
     26 H26        -7.2584    1.2722   64.8970 H       1  ZINC000564088286    0.0600
     27 H27        -6.5231    2.6825   65.6961 H       1  ZINC000564088286    0.0600
     28 H28        -5.5090    1.2978   65.2246 H       1  ZINC000564088286    0.0700
     29 H29        -6.7004   -0.1325   66.8628 H       1  ZINC000564088286    0.0800
     30 H30        -5.9650    1.2778   67.6619 H       1  ZINC000564088286    0.0700
     31 H31        -8.1537    2.1948   67.9377 H       1  ZINC000564088286    0.4200
     32 H32       -10.5204    2.0919   65.2327 H       1  ZINC000564088286    0.1400
     33 H33       -10.7953    1.8384   62.7990 H       1  ZINC000564088286    0.1300
     34 H34        -9.9372    0.7298   60.7721 H       1  ZINC000564088286    0.1100
     35 H35        -9.2742   -0.9193   60.8691 H       1  ZINC000564088286    0.1100
     36 H36       -11.1520   -0.5587   57.7914 H       1  ZINC000564088286    0.0800
     37 H37        -9.8276   -0.6172   58.9840 H       1  ZINC000564088286    0.1100
     38 H38        -9.8518   -2.4854   57.1989 H       1  ZINC000564088286    0.0900
     39 H39        -9.7230   -3.0104   58.8963 H       1  ZINC000564088286    0.0900
     40 H40       -14.8458   -3.8157   58.6472 H       1  ZINC000564088286    0.1500
     41 H41       -13.5476   -2.0421   60.3268 H       1  ZINC000564088286    0.1000
     42 H42       -13.6177   -1.0455   58.8488 H       1  ZINC000564088286    0.0900
     43 H43        -8.9097   -1.9825   62.9841 H       1  ZINC000564088286    0.1300
     44 H44        -8.6313   -1.7273   65.4173 H       1  ZINC000564088286    0.1400
@<TRIPOS>BOND
     1     1     2    1
     2     1    26    1
     3     1    27    1
     4     1    28    1
     5     2     3    1
     6     2    29    1
     7     2    30    1
     8     3     4   am
     9     3    31    1
    10     4     5    2
    11     4     6    2
    12     4     7    1
    13     7    25   ar
    14     7     8   ar
    15     8     9   ar
    16     8    32    1
    17     9    10   ar
    18     9    33    1
    19    10    11    1
    20    10    24   ar
    21    11    12    1
    22    11    34    1
    23    11    35    1
    24    12    13    2
    25    12    14   am
    26    14    23    1
    27    14    15    1
    28    15    16    1
    29    15    36    1
    30    15    37    1
    31    16    17    1
    32    16    38    1
    33    16    39    1
    34    17    22    1
    35    17    18    2
    36    18    19    1
    37    18    23    1
    38    19    20    2
    39    19    40    1
    40    20    21    1
    41    20    22    1
    42    23    41    1
    43    23    42    1
    44    24    25   ar
    45    24    43    1
    46    25    44    1
@<TRIPOS>SUBSTRUCTURE
     1 ZINC000564088286        1 TEMP              0 ****  ****    0 ROOT


##########                                Name:    ZINC000434204837
##########                DOCK_Rotatable_Bonds:                   7
##########                         Heavy_Atoms:                  29
##########                    Molecular_Weight:             406.511
##########                DOCK_Rotatable_Bonds:                   7
##########                       Formal_Charge:          -0.0200002
##########                     HBond_Acceptors:                   8
##########                        HBond_Donors:                   0
##########                         Heavy_Atoms:                  29
##########                          Grid_Score:          -35.629662
##########                     Grid_vdw_energy:          -35.778263
##########                      Grid_es_energy:            0.148602
##########           Internal_energy_repulsive:           16.303190

@<TRIPOS>MOLECULE
ZINC000434204837
 51 54 1 0 0
SMALL
USER_CHARGES


@<TRIPOS>ATOM
      1 C1        -16.9778   -2.3158   55.5368 C.3     1  ZINC000434204837   -0.1300
      2 C2        -15.9705   -3.3755   55.9023 C.ar    1  ZINC000434204837   -0.0700
      3 C3        -15.4296   -4.1829   54.9197 C.ar    1  ZINC000434204837   -0.1200
      4 C4        -14.5055   -5.1552   55.2551 C.ar    1  ZINC000434204837   -0.1100
      5 C5        -14.1225   -5.3194   56.5728 C.ar    1  ZINC000434204837   -0.1300
      6 C6        -14.6629   -4.5110   57.5557 C.ar    1  ZINC000434204837   -0.0900
      7 C7        -15.5835   -3.5362   57.2199 C.ar    1  ZINC000434204837   -0.1000
      8 C8        -16.1726   -2.6551   58.2911 C.3     1  ZINC000434204837    0.0100
      9 C9        -15.1870   -2.5119   59.4220 C.2     1  ZINC000434204837    0.2000
     10 N10       -14.2345   -1.6158   59.5190 N.2     1  ZINC000434204837   -0.4600
     11 C11       -13.6143   -1.8713   60.6848 C.2     1  ZINC000434204837    0.1700
     12 C12       -12.4438   -1.1141   61.2570 C.3     1  ZINC000434204837   -0.0300
     13 S13       -11.3039   -0.6678   59.9237 S.3     1  ZINC000434204837    0.0900
     14 C14       -10.4682   -2.2041   59.7086 C.2     1  ZINC000434204837    0.2100
     15 N15        -9.9795   -2.9688   60.6611 N.2     1  ZINC000434204837   -0.3300
     16 N16        -9.4338   -4.0178   60.1605 N.2     1  ZINC000434204837   -0.0200
     17 N17        -9.5296   -4.0045   58.8751 N.2     1  ZINC000434204837   -0.0700
     18 N18       -10.2122   -2.8250   58.5295 N.pl3   1  ZINC000434204837   -0.3100
     19 C19       -10.5489   -2.3816   57.2427 C.ar    1  ZINC000434204837    0.1100
     20 C20       -10.2437   -1.0849   56.8518 C.ar    1  ZINC000434204837   -0.1100
     21 C21       -10.5763   -0.6510   55.5833 C.ar    1  ZINC000434204837   -0.0900
     22 C22       -11.2129   -1.5067   54.7033 C.ar    1  ZINC000434204837   -0.0600
     23 C23       -11.5743   -1.0303   53.3200 C.3     1  ZINC000434204837   -0.0600
     24 C24       -10.9163   -1.9387   52.2795 C.3     1  ZINC000434204837   -0.1500
     25 C25       -13.0939   -1.0735   53.1465 C.3     1  ZINC000434204837   -0.1500
     26 C26       -11.5182   -2.7989   55.0897 C.ar    1  ZINC000434204837   -0.1000
     27 C27       -11.1831   -3.2401   56.3549 C.ar    1  ZINC000434204837   -0.0900
     28 N28       -14.2102   -2.8907   61.2272 N.2     1  ZINC000434204837   -0.3600
     29 O29       -15.1201   -3.2702   60.5205 O.3     1  ZINC000434204837    0.0900
     30 H30       -16.4589   -1.3851   55.3073 H       1  ZINC000434204837    0.0800
     31 H31       -17.5458   -2.6397   54.6647 H       1  ZINC000434204837    0.0700
     32 H32       -17.6572   -2.1560   56.3741 H       1  ZINC000434204837    0.0700
     33 H33       -15.7289   -4.0547   53.8900 H       1  ZINC000434204837    0.1300
     34 H34       -14.0834   -5.7866   54.4873 H       1  ZINC000434204837    0.1200
     35 H35       -13.4011   -6.0793   56.8349 H       1  ZINC000434204837    0.1300
     36 H36       -14.3639   -4.6395   58.5854 H       1  ZINC000434204837    0.1300
     37 H37       -16.3919   -1.6724   57.8735 H       1  ZINC000434204837    0.1200
     38 H38       -17.0925   -3.1042   58.6657 H       1  ZINC000434204837    0.1200
     39 H39       -12.8013   -0.2088   61.7476 H       1  ZINC000434204837    0.1300
     40 H40       -11.9260   -1.7406   61.9833 H       1  ZINC000434204837    0.1400
     41 H41        -9.7471   -0.4159   57.5390 H       1  ZINC000434204837    0.1400
     42 H42       -10.3391    0.3575   55.2787 H       1  ZINC000434204837    0.1400
     43 H43       -11.2221   -0.0078   53.1843 H       1  ZINC000434204837    0.0800
     44 H44       -11.2686   -2.9613   52.4152 H       1  ZINC000434204837    0.0600
     45 H45       -11.1777   -1.5941   51.2790 H       1  ZINC000434204837    0.0600
     46 H46        -9.8337   -1.9080   52.4031 H       1  ZINC000434204837    0.0600
     47 H47       -13.5627   -0.4263   53.8878 H       1  ZINC000434204837    0.0600
     48 H48       -13.3553   -0.7288   52.1461 H       1  ZINC000434204837    0.0600
     49 H49       -13.4461   -2.0960   53.2822 H       1  ZINC000434204837    0.0600
     50 H50       -12.0158   -3.4648   54.4002 H       1  ZINC000434204837    0.1400
     51 H51       -11.4217   -4.2494   56.6562 H       1  ZINC000434204837    0.1400
@<TRIPOS>BOND
     1     1     2    1
     2     1    30    1
     3     1    31    1
     4     1    32    1
     5     2     7   ar
     6     2     3   ar
     7     3     4   ar
     8     3    33    1
     9     4     5   ar
    10     4    34    1
    11     5     6   ar
    12     5    35    1
    13     6     7   ar
    14     6    36    1
    15     7     8    1
    16     8     9    1
    17     8    37    1
    18     8    38    1
    19     9    29    1
    20     9    10    2
    21    10    11    1
    22    11    12    1
    23    11    28    2
    24    12    13    1
    25    12    39    1
    26    12    40    1
    27    13    14    1
    28    14    18    1
    29    14    15    2
    30    15    16    1
    31    16    17    2
    32    17    18    1
    33    18    19    1
    34    19    27   ar
    35    19    20   ar
    36    20    21   ar
    37    20    41    1
    38    21    22   ar
    39    21    42    1
    40    22    23    1
    41    22    26   ar
    42    23    24    1
    43    23    25    1
    44    23    43    1
    45    24    44    1
    46    24    45    1
    47    24    46    1
    48    25    47    1
    49    25    48    1
    50    25    49    1
    51    26    27   ar
    52    26    50    1
    53    27    51    1
    54    28    29    1
@<TRIPOS>SUBSTRUCTURE
     1 ZINC000434204837        1 TEMP              0 ****  ****    0 ROOT


##########                                Name:    ZINC001408567397
##########                DOCK_Rotatable_Bonds:                   9
##########                         Heavy_Atoms:                  24
##########                    Molecular_Weight:             336.434
##########                DOCK_Rotatable_Bonds:                   9
##########                       Formal_Charge:          -0.0199996
##########                     HBond_Acceptors:                   7
##########                        HBond_Donors:                   2
##########                         Heavy_Atoms:                  24
##########                          Grid_Score:          -35.620255
##########                     Grid_vdw_energy:          -35.300018
##########                      Grid_es_energy:           -0.320237
##########           Internal_energy_repulsive:           18.009869

@<TRIPOS>MOLECULE
ZINC001408567397
 52 53 1 0 0
SMALL
USER_CHARGES


@<TRIPOS>ATOM
      1 C1        -10.5113   -3.5783   58.4484 C.3     1  ZINC001408567397   -0.0800
      2 C2        -10.2088   -2.7887   59.6959 C.2     1  ZINC001408567397    0.0900
      3 N3         -9.1994   -2.9880   60.5040 N.2     1  ZINC001408567397   -0.2900
      4 N4         -9.2749   -2.0470   61.5389 N.pl3   1  ZINC001408567397   -0.4700
      5 C5        -10.3629   -1.2784   61.3230 C.2     1  ZINC001408567397    0.1100
      6 C6        -10.8307   -0.1372   62.1889 C.3     1  ZINC001408567397   -0.1000
      7 C7        -10.9554   -1.7124   60.1864 C.2     1  ZINC001408567397   -0.2200
      8 C8        -12.2039   -1.1425   59.5641 C.3     1  ZINC001408567397   -0.0600
      9 C9        -13.3563   -2.0854   59.7962 C.2     1  ZINC001408567397    0.5100
     10 O10       -13.5364   -2.5638   60.8960 O.2     1  ZINC001408567397   -0.5300
     11 N11       -14.1869   -2.3972   58.7816 N.am    1  ZINC001408567397   -0.7300
     12 C12       -15.3082   -3.3125   59.0077 C.3     1  ZINC001408567397    0.1100
     13 C13       -15.8861   -3.7533   57.6614 C.3     1  ZINC001408567397    0.1000
     14 N14       -14.8254   -4.3516   56.8470 N.am    1  ZINC001408567397   -0.6200
     15 C15       -14.3895   -5.7260   57.1068 C.3     1  ZINC001408567397    0.0700
     16 C16       -14.2506   -3.6378   55.8588 C.2     1  ZINC001408567397    0.5100
     17 O17       -14.6105   -2.4996   55.6448 O.2     1  ZINC001408567397   -0.5300
     18 C18       -13.1608   -4.2539   55.0200 C.3     1  ZINC001408567397   -0.1300
     19 C19       -12.8071   -3.3094   53.8695 C.3     1  ZINC001408567397   -0.1100
     20 H20       -13.7217   -2.9020   53.4385 H       1  ZINC001408567397    0.0900
     21 C21       -11.9354   -2.1652   54.3958 C.3     1  ZINC001408567397   -0.1200
     22 C22       -11.5238   -1.2703   53.2229 C.3     1  ZINC001408567397   -0.1600
     23 C23       -10.7988   -2.1180   52.1743 C.3     1  ZINC001408567397    0.0600
     24 O24       -11.6534   -3.1817   51.7498 O.3     1  ZINC001408567397   -0.3800
     25 C25       -12.0340   -4.0787   52.7952 C.3     1  ZINC001408567397    0.0600
     26 H26       -10.0093   -3.1189   57.5969 H       1  ZINC001408567397    0.0800
     27 H27       -10.1560   -4.6015   58.5709 H       1  ZINC001408567397    0.0700
     28 H28       -11.5874   -3.5856   58.2750 H       1  ZINC001408567397    0.0800
     29 H29        -8.6546   -1.9627   62.2800 H       1  ZINC001408567397    0.4400
     30 H30       -10.3725    0.7905   61.8462 H       1  ZINC001408567397    0.0800
     31 H31       -11.9154   -0.0525   62.1236 H       1  ZINC001408567397    0.0900
     32 H32       -10.5425   -0.3243   63.2233 H       1  ZINC001408567397    0.0700
     33 H33       -12.4276   -0.1769   60.0174 H       1  ZINC001408567397    0.1000
     34 H34       -12.0498   -1.0141   58.4927 H       1  ZINC001408567397    0.1000
     35 H35       -14.0421   -2.0157   57.9016 H       1  ZINC001408567397    0.4000
     36 H36       -14.9586   -4.1868   59.5568 H       1  ZINC001408567397    0.0700
     37 H37       -16.0804   -2.8052   59.5860 H       1  ZINC001408567397    0.0700
     38 H38       -16.6746   -4.4873   57.8273 H       1  ZINC001408567397    0.0800
     39 H39       -16.2984   -2.8881   57.1422 H       1  ZINC001408567397    0.0900
     40 H40       -14.9860   -6.4154   56.5095 H       1  ZINC001408567397    0.0600
     41 H41       -13.3379   -5.8302   56.8398 H       1  ZINC001408567397    0.0800
     42 H42       -14.5201   -5.9548   58.1645 H       1  ZINC001408567397    0.0800
     43 H43       -12.2780   -4.4213   55.6371 H       1  ZINC001408567397    0.1000
     44 H44       -13.5073   -5.2050   54.6158 H       1  ZINC001408567397    0.1000
     45 H45       -12.5011   -1.5794   55.1203 H       1  ZINC001408567397    0.0700
     46 H46       -11.0447   -2.5748   54.8721 H       1  ZINC001408567397    0.0600
     47 H47       -12.4119   -0.8216   52.7778 H       1  ZINC001408567397    0.0700
     48 H48       -10.8578   -0.4848   53.5801 H       1  ZINC001408567397    0.0700
     49 H49       -10.5412   -1.4949   51.3179 H       1  ZINC001408567397    0.0900
     50 H50        -9.8894   -2.5336   52.6084 H       1  ZINC001408567397    0.0500
     51 H51       -11.1413   -4.5205   53.2381 H       1  ZINC001408567397    0.0400
     52 H52       -12.6651   -4.8674   52.3856 H       1  ZINC001408567397    0.1100
@<TRIPOS>BOND
     1     1     2    1
     2     1    26    1
     3     1    27    1
     4     1    28    1
     5     2     7    1
     6     2     3    2
     7     3     4    1
     8     4     5    1
     9     4    29    1
    10     5     6    1
    11     5     7    2
    12     6    30    1
    13     6    31    1
    14     6    32    1
    15     7     8    1
    16     8     9    1
    17     8    33    1
    18     8    34    1
    19     9    10    2
    20     9    11   am
    21    11    12    1
    22    11    35    1
    23    12    13    1
    24    12    36    1
    25    12    37    1
    26    13    14    1
    27    13    38    1
    28    13    39    1
    29    14    15    1
    30    14    16   am
    31    15    40    1
    32    15    41    1
    33    15    42    1
    34    16    17    2
    35    16    18    1
    36    18    19    1
    37    18    43    1
    38    18    44    1
    39    19    20    1
    40    19    25    1
    41    19    21    1
    42    21    22    1
    43    21    45    1
    44    21    46    1
    45    22    23    1
    46    22    47    1
    47    22    48    1
    48    23    24    1
    49    23    49    1
    50    23    50    1
    51    24    25    1
    52    25    51    1
    53    25    52    1
@<TRIPOS>SUBSTRUCTURE
     1 ZINC001408567397        1 TEMP              0 ****  ****    0 ROOT


##########                                Name:    ZINC000547864253
##########                DOCK_Rotatable_Bonds:                   6
##########                         Heavy_Atoms:                  30
##########                    Molecular_Weight:             422.548
##########                DOCK_Rotatable_Bonds:                   6
##########                       Formal_Charge:           0.0300002
##########                     HBond_Acceptors:                   6
##########                        HBond_Donors:                   2
##########                         Heavy_Atoms:                  30
##########                          Grid_Score:          -35.615120
##########                     Grid_vdw_energy:          -34.336143
##########                      Grid_es_energy:           -1.278978
##########           Internal_energy_repulsive:           18.424719

@<TRIPOS>MOLECULE
ZINC000547864253
 56 60 1 0 0
SMALL
USER_CHARGES


@<TRIPOS>ATOM
      1 O1        -12.4753   -4.9091   57.4300 O.2     1  ZINC000547864253   -0.5300
      2 C2        -13.0732   -3.8694   57.2495 C.2     1  ZINC000547864253    0.5400
      3 N3        -12.6211   -2.7271   57.8040 N.am    1  ZINC000547864253   -0.7200
      4 C4        -11.4111   -2.7426   58.6297 C.3     1  ZINC000547864253    0.1300
      5 C5        -11.2023   -1.3616   59.2545 C.3     1  ZINC000547864253    0.0200
      6 H6        -12.1707   -0.9111   59.4719 H       1  ZINC000547864253    0.0900
      7 C7        -10.4154   -1.5019   60.5319 C.2     1  ZINC000547864253   -0.1600
      8 C8         -9.4552   -2.4058   60.7830 C.2     1  ZINC000547864253    0.0600
      9 N9         -8.9666   -2.2281   62.0488 N.pl3   1  ZINC000547864253   -0.5900
     10 C10        -9.6171   -1.1788   62.6587 C.ar    1  ZINC000547864253    0.1000
     11 C11        -9.5146   -0.5879   63.9135 C.ar    1  ZINC000547864253   -0.1300
     12 C12       -10.3273    0.4768   64.2370 C.ar    1  ZINC000547864253   -0.1000
     13 C13       -11.2490    0.9671   63.3227 C.ar    1  ZINC000547864253   -0.1400
     14 C14       -11.3665    0.4016   62.0841 C.ar    1  ZINC000547864253   -0.0700
     15 C15       -10.5487   -0.6739   61.7330 C.ar    1  ZINC000547864253   -0.1000
     16 C16       -10.4449   -0.4839   58.2916 C.ar    1  ZINC000547864253   -0.0700
     17 C17        -9.8207    0.6627   58.7461 C.ar    1  ZINC000547864253   -0.1100
     18 C18        -9.1259    1.4678   57.8630 C.ar    1  ZINC000547864253   -0.1200
     19 C19        -9.0550    1.1261   56.5254 C.ar    1  ZINC000547864253   -0.1200
     20 C20        -9.6784   -0.0210   56.0711 C.ar    1  ZINC000547864253   -0.1100
     21 C21       -10.3695   -0.8284   56.9550 C.ar    1  ZINC000547864253   -0.1200
     22 C22       -14.3180   -3.8536   56.4002 C.3     1  ZINC000547864253   -0.1700
     23 H23       -15.2493   -3.6664   56.9347 H       1  ZINC000547864253    0.1400
     24 C24       -14.3691   -4.8060   55.2041 C.3     1  ZINC000547864253   -0.1300
     25 C25       -14.1961   -3.3012   54.9775 C.3     1  ZINC000547864253   -0.1400
     26 C26       -15.3932   -2.5318   54.4177 C.3     1  ZINC000547864253   -0.0700
     27 C27       -15.4575   -2.7111   52.8994 C.3     1  ZINC000547864253   -0.6000
     28 S28       -13.9378   -2.0532   52.1553 S.o2    1  ZINC000547864253    2.4200
     29 O29       -13.9160   -2.4068   50.7792 O.2     1  ZINC000547864253   -0.9400
     30 O30       -13.8064   -0.6872   52.5238 O.2     1  ZINC000547864253   -0.9300
     31 C31       -12.6635   -3.0141   53.0212 C.3     1  ZINC000547864253   -0.6000
     32 C32       -12.8183   -2.8110   54.5299 C.3     1  ZINC000547864253   -0.0700
     33 H33       -13.0970   -1.8949   57.6565 H       1  ZINC000547864253    0.4000
     34 H34       -11.5194   -3.4860   59.4193 H       1  ZINC000547864253    0.0800
     35 H35       -10.5510   -2.9943   58.0091 H       1  ZINC000547864253    0.0700
     36 H36        -9.1183   -3.1615   60.0889 H       1  ZINC000547864253    0.1700
     37 H37        -8.2664   -2.7618   62.4558 H       1  ZINC000547864253    0.4200
     38 H38        -8.8006   -0.9625   64.6321 H       1  ZINC000547864253    0.1200
     39 H39       -10.2464    0.9340   65.2121 H       1  ZINC000547864253    0.1300
     40 H40       -11.8788    1.8021   63.5922 H       1  ZINC000547864253    0.1200
     41 H41       -12.0860    0.7885   61.3778 H       1  ZINC000547864253    0.1200
     42 H42        -9.8761    0.9297   59.7912 H       1  ZINC000547864253    0.1200
     43 H43        -8.6388    2.3640   58.2179 H       1  ZINC000547864253    0.1200
     44 H44        -8.5127    1.7554   55.8353 H       1  ZINC000547864253    0.1200
     45 H45        -9.6232   -0.2878   55.0260 H       1  ZINC000547864253    0.1200
     46 H46       -10.8566   -1.7246   56.6001 H       1  ZINC000547864253    0.1200
     47 H47       -13.5024   -5.4441   55.0314 H       1  ZINC000547864253    0.1100
     48 H48       -15.3342   -5.2452   54.9515 H       1  ZINC000547864253    0.1100
     49 H49       -16.3108   -2.9117   54.8669 H       1  ZINC000547864253    0.0900
     50 H50       -15.2863   -1.4730   54.6535 H       1  ZINC000547864253    0.0900
     51 H51       -15.5502   -3.7708   52.6615 H       1  ZINC000547864253    0.1400
     52 H52       -16.3190   -2.1720   52.5051 H       1  ZINC000547864253    0.1400
     53 H53       -12.7795   -4.0713   52.7822 H       1  ZINC000547864253    0.1400
     54 H54       -11.6761   -2.6753   52.7075 H       1  ZINC000547864253    0.1400
     55 H55       -12.7162   -1.7516   54.7655 H       1  ZINC000547864253    0.0900
     56 H56       -12.0455   -3.3743   55.0528 H       1  ZINC000547864253    0.0900
@<TRIPOS>BOND
     1     1     2    2
     2     2     3   am
     3     2    22    1
     4     3     4    1
     5     3    33    1
     6     4     5    1
     7     4    34    1
     8     4    35    1
     9     5     6    1
    10     5     7    1
    11     5    16    1
    12     7    15    1
    13     7     8    2
    14     8     9    1
    15     8    36    1
    16     9    10    1
    17     9    37    1
    18    10    15   ar
    19    10    11   ar
    20    11    12   ar
    21    11    38    1
    22    12    13   ar
    23    12    39    1
    24    13    14   ar
    25    13    40    1
    26    14    15   ar
    27    14    41    1
    28    16    21   ar
    29    16    17   ar
    30    17    18   ar
    31    17    42    1
    32    18    19   ar
    33    18    43    1
    34    19    20   ar
    35    19    44    1
    36    20    21   ar
    37    20    45    1
    38    21    46    1
    39    22    23    1
    40    22    25    1
    41    22    24    1
    42    24    25    1
    43    24    47    1
    44    24    48    1
    45    25    32    1
    46    25    26    1
    47    26    27    1
    48    26    49    1
    49    26    50    1
    50    27    28    1
    51    27    51    1
    52    27    52    1
    53    28    29    2
    54    28    30    2
    55    28    31    1
    56    31    32    1
    57    31    53    1
    58    31    54    1
    59    32    55    1
    60    32    56    1
@<TRIPOS>SUBSTRUCTURE
     1 ZINC000547864253        1 TEMP              0 ****  ****    0 ROOT


##########                                Name:    ZINC000851838607
##########                DOCK_Rotatable_Bonds:                  12
##########                         Heavy_Atoms:                  23
##########                    Molecular_Weight:             352.495
##########                DOCK_Rotatable_Bonds:                  12
##########                       Formal_Charge:          0.00999896
##########                     HBond_Acceptors:                   8
##########                        HBond_Donors:                   2
##########                         Heavy_Atoms:                  23
##########                          Grid_Score:          -35.583424
##########                     Grid_vdw_energy:          -34.708855
##########                      Grid_es_energy:           -0.874568
##########           Internal_energy_repulsive:           23.002192

@<TRIPOS>MOLECULE
ZINC000851838607
 55 54 1 0 0
SMALL
USER_CHARGES


@<TRIPOS>ATOM
      1 C1         -6.9107    0.7064   50.3160 C.3     1  ZINC000851838607    0.0300
      2 O2         -7.5867    0.1326   51.4367 O.3     1  ZINC000851838607   -0.3800
      3 C3         -8.5162    1.0148   52.0689 C.3     1  ZINC000851838607    0.0800
      4 C4         -9.2530    0.2669   53.1819 C.3     1  ZINC000851838607   -0.6000
      5 H5         -8.5279   -0.1534   53.8789 H       1  ZINC000851838607    0.1400
      6 C6        -10.1726    1.2372   53.9262 C.3     1  ZINC000851838607   -0.1400
      7 S7        -10.2427   -1.0705   52.4592 S.o2    1  ZINC000851838607    2.6200
      8 O8        -11.4505   -0.5581   51.9135 O.2     1  ZINC000851838607   -0.9400
      9 O9         -9.4176   -1.9535   51.7118 O.2     1  ZINC000851838607   -0.9500
     10 N10       -10.7321   -1.9715   53.7598 N.am    1  ZINC000851838607   -1.1200
     11 C11       -11.5667   -3.1581   53.5564 C.3     1  ZINC000851838607    0.1100
     12 C12       -12.9652   -2.9009   54.1213 C.3     1  ZINC000851838607   -0.1400
     13 C13       -13.0355   -3.4124   55.5615 C.3     1  ZINC000851838607    0.1700
     14 H14       -12.7581   -4.4662   55.5867 H       1  ZINC000851838607    0.1000
     15 N15       -12.1108   -2.6438   56.3984 N.am    1  ZINC000851838607   -0.7100
     16 C16       -11.1140   -3.2716   57.0532 C.2     1  ZINC000851838607    0.6500
     17 O17       -10.9834   -4.4754   56.9508 O.2     1  ZINC000851838607   -0.5600
     18 O18       -10.2632   -2.5651   57.8210 O.3     1  ZINC000851838607   -0.3700
     19 C19       -10.3242   -2.7926   59.2538 C.3     1  ZINC000851838607    0.1400
     20 C20        -9.5881   -4.0895   59.5961 C.3     1  ZINC000851838607   -0.1800
     21 C21        -9.6626   -1.6225   59.9846 C.3     1  ZINC000851838607   -0.1400
     22 C22       -11.7861   -2.9055   59.6906 C.3     1  ZINC000851838607   -0.1800
     23 C23       -14.4610   -3.2474   56.0923 C.3     1  ZINC000851838607   -0.1100
     24 C24       -14.7958   -4.4127   57.0254 C.3     1  ZINC000851838607   -0.1500
     25 C25       -14.5689   -1.9299   56.8627 C.3     1  ZINC000851838607   -0.1400
     26 H26        -7.6412    0.9984   49.5615 H       1  ZINC000851838607    0.0400
     27 H27        -6.3518    1.5845   50.6395 H       1  ZINC000851838607    0.0500
     28 H28        -6.2235   -0.0260   49.8922 H       1  ZINC000851838607    0.0900
     29 H29        -7.9801    1.8631   52.4944 H       1  ZINC000851838607    0.0700
     30 H30        -9.2363    1.3721   51.3328 H       1  ZINC000851838607    0.0600
     31 H31       -10.7643    0.6876   54.6584 H       1  ZINC000851838607    0.0700
     32 H32        -9.5708    1.9893   54.4361 H       1  ZINC000851838607    0.0900
     33 H33       -10.8380    1.7255   53.2142 H       1  ZINC000851838607    0.0700
     34 H34       -10.4659   -1.7135   54.6562 H       1  ZINC000851838607    0.4200
     35 H35       -11.6394   -3.3728   52.4902 H       1  ZINC000851838607    0.0700
     36 H36       -11.1188   -4.0096   54.0687 H       1  ZINC000851838607    0.0800
     37 H37       -13.1723   -1.8309   54.1052 H       1  ZINC000851838607    0.0800
     38 H38       -13.7042   -3.4232   53.5137 H       1  ZINC000851838607    0.1000
     39 H39       -12.2158   -1.6831   56.4811 H       1  ZINC000851838607    0.4100
     40 H40        -8.5465   -4.0090   59.2850 H       1  ZINC000851838607    0.0600
     41 H41        -9.6339   -4.2602   60.6717 H       1  ZINC000851838607    0.0700
     42 H42       -10.0594   -4.9230   59.0755 H       1  ZINC000851838607    0.0900
     43 H43       -10.1870   -0.6985   59.7407 H       1  ZINC000851838607    0.0700
     44 H44        -9.7083   -1.7932   61.0602 H       1  ZINC000851838607    0.0800
     45 H45        -8.6210   -1.5421   59.6735 H       1  ZINC000851838607    0.0700
     46 H46       -12.2576   -3.7391   59.1700 H       1  ZINC000851838607    0.0900
     47 H47       -11.8320   -3.0762   60.7661 H       1  ZINC000851838607    0.0700
     48 H48       -12.3106   -1.9815   59.4467 H       1  ZINC000851838607    0.0600
     49 H49       -15.1610   -3.2382   55.2568 H       1  ZINC000851838607    0.0700
     50 H50       -14.0958   -4.4219   57.8608 H       1  ZINC000851838607    0.0600
     51 H51       -15.8113   -4.2951   57.4036 H       1  ZINC000851838607    0.0600
     52 H52       -14.7189   -5.3513   56.4766 H       1  ZINC000851838607    0.0600
     53 H53       -14.3303   -1.0997   56.1979 H       1  ZINC000851838607    0.0500
     54 H54       -15.5844   -1.8123   57.2409 H       1  ZINC000851838607    0.0500
     55 H55       -13.8689   -1.9391   57.6982 H       1  ZINC000851838607    0.0700
@<TRIPOS>BOND
     1     1     2    1
     2     1    26    1
     3     1    27    1
     4     1    28    1
     5     2     3    1
     6     3     4    1
     7     3    29    1
     8     3    30    1
     9     4     5    1
    10     4     6    1
    11     4     7    1
    12     6    31    1
    13     6    32    1
    14     6    33    1
    15     7     8    2
    16     7     9    2
    17     7    10   am
    18    10    11    1
    19    10    34    1
    20    11    12    1
    21    11    35    1
    22    11    36    1
    23    12    13    1
    24    12    37    1
    25    12    38    1
    26    13    14    1
    27    13    15    1
    28    13    23    1
    29    15    16   am
    30    15    39    1
    31    16    17    2
    32    16    18    1
    33    18    19    1
    34    19    20    1
    35    19    21    1
    36    19    22    1
    37    20    40    1
    38    20    41    1
    39    20    42    1
    40    21    43    1
    41    21    44    1
    42    21    45    1
    43    22    46    1
    44    22    47    1
    45    22    48    1
    46    23    24    1
    47    23    25    1
    48    23    49    1
    49    24    50    1
    50    24    51    1
    51    24    52    1
    52    25    53    1
    53    25    54    1
    54    25    55    1
@<TRIPOS>SUBSTRUCTURE
     1 ZINC000851838607        1 TEMP              0 ****  ****    0 ROOT


##########                                Name:    ZINC000668548901
##########                DOCK_Rotatable_Bonds:                   9
##########                         Heavy_Atoms:                  26
##########                    Molecular_Weight:             374.464
##########                DOCK_Rotatable_Bonds:                   9
##########                       Formal_Charge:         3.53903e-07
##########                     HBond_Acceptors:                   8
##########                        HBond_Donors:                   3
##########                         Heavy_Atoms:                  26
##########                          Grid_Score:          -35.575317
##########                     Grid_vdw_energy:          -34.067822
##########                      Grid_es_energy:           -1.507495
##########           Internal_energy_repulsive:           12.562666

@<TRIPOS>MOLECULE
ZINC000668548901
 48 50 1 0 0
SMALL
USER_CHARGES


@<TRIPOS>ATOM
      1 O1        -12.0314   -1.8699   57.1410 O.2     1  ZINC000668548901   -0.5700
      2 C2        -11.6113   -2.9713   57.4385 C.2     1  ZINC000668548901    0.7100
      3 N3        -11.7770   -4.0069   56.5920 N.am    1  ZINC000668548901   -0.6800
      4 C4        -12.4358   -3.8162   55.3765 C.ar    1  ZINC000668548901    0.2200
      5 C5        -13.8139   -4.0121   55.2715 C.ar    1  ZINC000668548901   -0.1700
      6 C6        -14.4314   -3.8147   54.0550 C.ar    1  ZINC000668548901    0.1200
      7 N7        -13.7381   -3.4449   52.9943 N.ar    1  ZINC000668548901   -0.4300
      8 C8        -12.4282   -3.2480   53.0499 C.ar    1  ZINC000668548901    0.1100
      9 S9        -11.5581   -2.7543   51.5995 S.3     1  ZINC000668548901    0.0900
     10 C10       -10.6203   -1.3687   52.1521 C.ar    1  ZINC000668548901    0.0900
     11 C11       -11.2518   -0.3411   52.8453 C.ar    1  ZINC000668548901   -0.1500
     12 C12       -10.5033    0.7405   53.2738 C.ar    1  ZINC000668548901   -0.0700
     13 C13        -9.1435    0.7581   52.9935 C.ar    1  ZINC000668548901   -0.1700
     14 C14        -8.5818   -0.2962   52.3006 C.ar    1  ZINC000668548901    0.1000
     15 N15        -9.3192   -1.3174   51.9086 N.ar    1  ZINC000668548901   -0.4200
     16 C16       -11.7362   -3.4208   54.2412 C.ar    1  ZINC000668548901   -0.1800
     17 N17       -10.9751   -3.1555   58.6122 N.am    1  ZINC000668548901   -0.7200
     18 C18       -10.7950   -2.0298   59.5323 C.3     1  ZINC000668548901    0.1700
     19 H19       -10.9149   -1.0930   58.9880 H       1  ZINC000668548901    0.1000
     20 C20        -9.3933   -2.0893   60.1428 C.3     1  ZINC000668548901    0.0600
     21 O21        -9.2424   -3.3092   60.8715 O.3     1  ZINC000668548901   -0.5700
     22 C22       -11.8405   -2.1096   60.6466 C.3     1  ZINC000668548901   -0.1300
     23 H23       -11.7236   -3.0478   61.1891 H       1  ZINC000668548901    0.1000
     24 C24       -13.2442   -2.0419   60.0373 C.3     1  ZINC000668548901   -0.1200
     25 C25       -14.2795   -2.0442   61.1662 C.3     1  ZINC000668548901   -0.1600
     26 C26       -13.9979   -0.8709   62.1087 C.3     1  ZINC000668548901    0.0600
     27 O27       -12.6662   -0.9781   62.6159 O.3     1  ZINC000668548901   -0.3800
     28 C28       -11.6521   -0.9348   61.6099 C.3     1  ZINC000668548901    0.0700
     29 H29       -11.4383   -4.8848   56.8276 H       1  ZINC000668548901    0.4100
     30 H30       -14.3897   -4.3153   56.1335 H       1  ZINC000668548901    0.1500
     31 H31       -15.4974   -3.9648   53.9685 H       1  ZINC000668548901    0.1600
     32 H32       -12.3120   -0.3869   53.0460 H       1  ZINC000668548901    0.1400
     33 H33       -10.9663    1.5532   53.8137 H       1  ZINC000668548901    0.1400
     34 H34        -8.5313    1.5882   53.3137 H       1  ZINC000668548901    0.1400
     35 H35        -7.5247   -0.2863   52.0802 H       1  ZINC000668548901    0.1600
     36 H36       -10.6692   -3.2596   54.2835 H       1  ZINC000668548901    0.1400
     37 H37       -10.6364   -4.0334   58.8478 H       1  ZINC000668548901    0.4000
     38 H38        -8.6487   -2.0463   59.3479 H       1  ZINC000668548901    0.0500
     39 H39        -9.2545   -1.2439   60.8168 H       1  ZINC000668548901    0.0600
     40 H40        -8.3694   -3.4232   61.2713 H       1  ZINC000668548901    0.3800
     41 H41       -13.3442   -1.1274   59.4526 H       1  ZINC000668548901    0.0700
     42 H42       -13.4045   -2.9070   59.3938 H       1  ZINC000668548901    0.0700
     43 H43       -15.2791   -1.9404   60.7441 H       1  ZINC000668548901    0.0800
     44 H44       -14.2124   -2.9805   61.7202 H       1  ZINC000668548901    0.0700
     45 H45       -14.1049    0.0669   61.5636 H       1  ZINC000668548901    0.0500
     46 H46       -14.7055   -0.8926   62.9375 H       1  ZINC000668548901    0.1000
     47 H47       -10.6709   -1.0018   62.0799 H       1  ZINC000668548901    0.1000
     48 H48       -11.7276    0.0019   61.0577 H       1  ZINC000668548901    0.0500
@<TRIPOS>BOND
     1     1     2    2
     2     2     3   am
     3     2    17   am
     4     3     4    1
     5     3    29    1
     6     4    16   ar
     7     4     5   ar
     8     5     6   ar
     9     5    30    1
    10     6     7   ar
    11     6    31    1
    12     7     8   ar
    13     8     9    1
    14     8    16   ar
    15     9    10    1
    16    10    15   ar
    17    10    11   ar
    18    11    12   ar
    19    11    32    1
    20    12    13   ar
    21    12    33    1
    22    13    14   ar
    23    13    34    1
    24    14    15   ar
    25    14    35    1
    26    16    36    1
    27    17    18    1
    28    17    37    1
    29    18    19    1
    30    18    20    1
    31    18    22    1
    32    20    21    1
    33    20    38    1
    34    20    39    1
    35    21    40    1
    36    22    23    1
    37    22    28    1
    38    22    24    1
    39    24    25    1
    40    24    41    1
    41    24    42    1
    42    25    26    1
    43    25    43    1
    44    25    44    1
    45    26    27    1
    46    26    45    1
    47    26    46    1
    48    27    28    1
    49    28    47    1
    50    28    48    1
@<TRIPOS>SUBSTRUCTURE
     1 ZINC000668548901        1 TEMP              0 ****  ****    0 ROOT


##########                                Name:    ZINC000562561773
##########                DOCK_Rotatable_Bonds:                   6
##########                         Heavy_Atoms:                  26
##########                    Molecular_Weight:             371.466
##########                DOCK_Rotatable_Bonds:                   6
##########                       Formal_Charge:           0.0199999
##########                     HBond_Acceptors:                   9
##########                        HBond_Donors:                   0
##########                         Heavy_Atoms:                  26
##########                          Grid_Score:          -35.567680
##########                     Grid_vdw_energy:          -34.274334
##########                      Grid_es_energy:           -1.293345
##########           Internal_energy_repulsive:            9.035302

@<TRIPOS>MOLECULE
ZINC000562561773
 47 50 1 0 0
SMALL
USER_CHARGES


@<TRIPOS>ATOM
      1 C1        -10.8108   -5.4635   57.9986 C.3     1  ZINC000562561773   -0.1100
      2 C2        -10.5410   -3.9809   57.9798 C.ar    1  ZINC000562561773   -0.0400
      3 C3         -9.7711   -3.4079   58.9737 C.ar    1  ZINC000562561773   -0.1200
      4 C4         -9.5202   -2.0501   58.9622 C.ar    1  ZINC000562561773   -0.0700
      5 C5        -10.0438   -1.2529   57.9464 C.ar    1  ZINC000562561773   -0.0300
      6 C6         -9.7745    0.2068   57.9326 C.2     1  ZINC000562561773    0.2200
      7 N7        -10.4708    1.1304   58.5422 N.2     1  ZINC000562561773   -0.3700
      8 O8         -9.9886    2.2231   58.3317 O.3     1  ZINC000562561773    0.0900
      9 C9         -8.9115    2.1050   57.5488 C.2     1  ZINC000562561773    0.1900
     10 C10        -8.0328    3.2274   57.0600 C.3     1  ZINC000562561773   -0.0100
     11 C11        -6.5770    2.7581   57.0269 C.3     1  ZINC000562561773   -0.1200
     12 S12        -5.5233    4.0044   57.8097 S.3     1  ZINC000562561773    0.0600
     13 C13        -4.0335    3.0798   57.9838 C.2     1  ZINC000562561773    0.2100
     14 N14        -3.4775    2.6990   59.1135 N.2     1  ZINC000562561773   -0.3300
     15 N15        -2.3985    2.0414   58.8845 N.2     1  ZINC000562561773   -0.0300
     16 N16        -2.1877    1.9541   57.6158 N.2     1  ZINC000562561773   -0.0700
     17 N17        -3.2484    2.6226   56.9799 N.pl3   1  ZINC000562561773   -0.3600
     18 C18        -3.4552    2.7954   55.5399 C.3     1  ZINC000562561773    0.0800
     19 N19        -8.7595    0.8297   57.2920 N.2     1  ZINC000562561773   -0.4600
     20 C20       -10.8198   -1.8288   56.9442 C.ar    1  ZINC000562561773   -0.1100
     21 C21       -11.0627   -3.1943   56.9594 C.ar    1  ZINC000562561773    0.0800
     22 N22       -11.8403   -3.7770   55.9558 N.3     1  ZINC000562561773   -0.4800
     23 C23       -13.2206   -3.2285   55.9660 C.3     1  ZINC000562561773    0.0400
     24 C24       -13.7421   -3.5542   54.5438 C.3     1  ZINC000562561773   -0.1200
     25 C25       -12.4932   -3.3358   53.6592 C.3     1  ZINC000562561773   -0.1300
     26 C26       -11.2941   -3.4695   54.6162 C.3     1  ZINC000562561773    0.0400
     27 H27       -10.0281   -5.9823   57.4452 H       1  ZINC000562561773    0.0700
     28 H28       -10.8227   -5.8176   59.0294 H       1  ZINC000562561773    0.0600
     29 H29       -11.7768   -5.6629   57.5348 H       1  ZINC000562561773    0.0800
     30 H30        -9.3645   -4.0240   59.7622 H       1  ZINC000562561773    0.1400
     31 H31        -8.9181   -1.6059   59.7411 H       1  ZINC000562561773    0.1400
     32 H32        -8.3428    3.5212   56.0572 H       1  ZINC000562561773    0.1200
     33 H33        -8.1245    4.0800   57.7329 H       1  ZINC000562561773    0.1300
     34 H34        -6.4867    1.8153   57.5664 H       1  ZINC000562561773    0.1100
     35 H35        -6.2644    2.6160   55.9924 H       1  ZINC000562561773    0.1100
     36 H36        -4.0417    1.9614   55.1544 H       1  ZINC000562561773    0.1000
     37 H37        -3.9883    3.7288   55.3588 H       1  ZINC000562561773    0.1000
     38 H38        -2.4896    2.8246   55.0351 H       1  ZINC000562561773    0.1100
     39 H39       -11.2280   -1.2149   56.1550 H       1  ZINC000562561773    0.1300
     40 H40       -13.8273   -3.7273   56.7218 H       1  ZINC000562561773    0.0900
     41 H41       -13.2054   -2.1513   56.1327 H       1  ZINC000562561773    0.0500
     42 H42       -14.0805   -4.5887   54.4847 H       1  ZINC000562561773    0.0800
     43 H43       -14.5408   -2.8692   54.2595 H       1  ZINC000562561773    0.0700
     44 H44       -12.4429   -4.0973   52.8810 H       1  ZINC000562561773    0.0800
     45 H45       -12.5136   -2.3405   53.2151 H       1  ZINC000562561773    0.0700
     46 H46       -10.7382   -2.5324   54.6481 H       1  ZINC000562561773    0.0500
     47 H47       -10.6437   -4.2792   54.2856 H       1  ZINC000562561773    0.0800
@<TRIPOS>BOND
     1     1     2    1
     2     1    27    1
     3     1    28    1
     4     1    29    1
     5     2    21   ar
     6     2     3   ar
     7     3     4   ar
     8     3    30    1
     9     4     5   ar
    10     4    31    1
    11     5     6    1
    12     5    20   ar
    13     6    19    1
    14     6     7    2
    15     7     8    1
    16     8     9    1
    17     9    10    1
    18     9    19    2
    19    10    11    1
    20    10    32    1
    21    10    33    1
    22    11    12    1
    23    11    34    1
    24    11    35    1
    25    12    13    1
    26    13    17    1
    27    13    14    2
    28    14    15    1
    29    15    16    2
    30    16    17    1
    31    17    18    1
    32    18    36    1
    33    18    37    1
    34    18    38    1
    35    20    21   ar
    36    20    39    1
    37    21    22    1
    38    22    26    1
    39    22    23    1
    40    23    24    1
    41    23    40    1
    42    23    41    1
    43    24    25    1
    44    24    42    1
    45    24    43    1
    46    25    26    1
    47    25    44    1
    48    25    45    1
    49    26    46    1
    50    26    47    1
@<TRIPOS>SUBSTRUCTURE
     1 ZINC000562561773        1 TEMP              0 ****  ****    0 ROOT


##########                                Name:    ZINC000420486261
##########                DOCK_Rotatable_Bonds:                   7
##########                         Heavy_Atoms:                  26
##########                    Molecular_Weight:             353.378
##########                DOCK_Rotatable_Bonds:                   7
##########                       Formal_Charge:        -2.98023e-08
##########                     HBond_Acceptors:                   7
##########                        HBond_Donors:                   0
##########                         Heavy_Atoms:                  26
##########                          Grid_Score:          -35.544666
##########                     Grid_vdw_energy:          -35.350353
##########                      Grid_es_energy:           -0.194312
##########           Internal_energy_repulsive:           13.427514

@<TRIPOS>MOLECULE
ZINC000420486261
 45 47 1 0 0
SMALL
USER_CHARGES


@<TRIPOS>ATOM
      1 C1         -5.1203    1.4488   49.9075 C.3     1  ZINC000420486261    0.0400
      2 O2         -6.1340    1.5580   50.9413 O.3     1  ZINC000420486261   -0.3500
      3 C3         -7.0618    0.5832   50.9931 C.2     1  ZINC000420486261    0.5100
      4 O4         -7.0372   -0.3221   50.1843 O.2     1  ZINC000420486261   -0.4900
      5 C5         -8.1119    0.6155   52.0364 C.ar    1  ZINC000420486261   -0.0700
      6 C6         -8.3585    1.7800   52.7711 C.ar    1  ZINC000420486261   -0.0900
      7 C7         -9.3488    1.7715   53.7379 C.ar    1  ZINC000420486261    0.1100
      8 N8        -10.0572    0.6887   53.9740 N.ar    1  ZINC000420486261   -0.4200
      9 C9         -9.8603   -0.4396   53.3032 C.ar    1  ZINC000420486261    0.1900
     10 C10       -10.6872   -1.6280   53.6101 C.2     1  ZINC000420486261    0.2200
     11 N11       -11.4719   -1.7895   54.6576 N.2     1  ZINC000420486261   -0.4300
     12 C12       -12.0183   -3.0153   54.5140 C.2     1  ZINC000420486261    0.2200
     13 C13       -12.9780   -3.6635   55.4407 C.ar    1  ZINC000420486261   -0.0600
     14 C14       -13.5003   -4.9194   55.1411 C.ar    1  ZINC000420486261   -0.0300
     15 C15       -14.3929   -5.5185   56.0067 C.ar    1  ZINC000420486261   -0.1600
     16 C16       -14.7716   -4.8759   57.1722 C.ar    1  ZINC000420486261   -0.0600
     17 C17       -14.2597   -3.6298   57.4794 C.ar    1  ZINC000420486261   -0.2200
     18 C18       -13.3580   -3.0190   56.6222 C.ar    1  ZINC000420486261    0.1700
     19 O19       -12.8540   -1.7944   56.9229 O.3     1  ZINC000420486261   -0.2900
     20 C20       -12.2109   -1.6511   58.1909 C.3     1  ZINC000420486261    0.0600
     21 C21       -10.7926   -2.2194   58.1105 C.3     1  ZINC000420486261   -0.0900
     22 C22        -9.8128   -1.2385   58.7574 C.3     1  ZINC000420486261   -0.1500
     23 C23       -10.7370   -3.5579   58.8496 C.3     1  ZINC000420486261   -0.1500
     24 N24       -11.5451   -3.5261   53.4056 N.2     1  ZINC000420486261   -0.3400
     25 O25       -10.7861   -2.7447   52.8727 O.3     1  ZINC000420486261    0.1000
     26 C26        -8.8869   -0.5148   52.3091 C.ar    1  ZINC000420486261   -0.0700
     27 H27        -4.4376    2.2956   49.9771 H       1  ZINC000420486261    0.1100
     28 H28        -4.5635    0.5212   50.0411 H       1  ZINC000420486261    0.0700
     29 H29        -5.5988    1.4475   48.9281 H       1  ZINC000420486261    0.0700
     30 H30        -7.7827    2.6749   52.5865 H       1  ZINC000420486261    0.1600
     31 H31        -9.5429    2.6682   54.3077 H       1  ZINC000420486261    0.1800
     32 H32       -13.2073   -5.4239   54.2322 H       1  ZINC000420486261    0.1400
     33 H33       -14.7977   -6.4922   55.7732 H       1  ZINC000420486261    0.1300
     34 H34       -15.4709   -5.3504   57.8447 H       1  ZINC000420486261    0.1300
     35 H35       -14.5590   -3.1332   58.3905 H       1  ZINC000420486261    0.1400
     36 H36       -12.1647   -0.5953   58.4576 H       1  ZINC000420486261    0.0600
     37 H37       -12.7771   -2.1929   58.9486 H       1  ZINC000420486261    0.0600
     38 H38       -10.5201   -2.3696   57.0659 H       1  ZINC000420486261    0.0800
     39 H39       -10.0853   -1.0884   59.8021 H       1  ZINC000420486261    0.0600
     40 H40        -8.8024   -1.6434   58.7001 H       1  ZINC000420486261    0.0700
     41 H41        -9.8524   -0.2849   58.2309 H       1  ZINC000420486261    0.0600
     42 H42       -11.0095   -3.4078   59.8942 H       1  ZINC000420486261    0.0500
     43 H43       -11.4351   -4.2568   58.3887 H       1  ZINC000420486261    0.0600
     44 H44        -9.7265   -3.9629   58.7923 H       1  ZINC000420486261    0.0600
     45 H45        -8.7285   -1.4336   51.7642 H       1  ZINC000420486261    0.1600
@<TRIPOS>BOND
     1     1     2    1
     2     1    27    1
     3     1    28    1
     4     1    29    1
     5     2     3    1
     6     3     4    2
     7     3     5    1
     8     5    26   ar
     9     5     6   ar
    10     6     7   ar
    11     6    30    1
    12     7     8   ar
    13     7    31    1
    14     8     9   ar
    15     9    10    1
    16     9    26   ar
    17    10    25    1
    18    10    11    2
    19    11    12    1
    20    12    13    1
    21    12    24    2
    22    13    18   ar
    23    13    14   ar
    24    14    15   ar
    25    14    32    1
    26    15    16   ar
    27    15    33    1
    28    16    17   ar
    29    16    34    1
    30    17    18   ar
    31    17    35    1
    32    18    19    1
    33    19    20    1
    34    20    21    1
    35    20    36    1
    36    20    37    1
    37    21    22    1
    38    21    23    1
    39    21    38    1
    40    22    39    1
    41    22    40    1
    42    22    41    1
    43    23    42    1
    44    23    43    1
    45    23    44    1
    46    24    25    1
    47    26    45    1
@<TRIPOS>SUBSTRUCTURE
     1 ZINC000420486261        1 TEMP              0 ****  ****    0 ROOT


##########                                Name:    ZINC000443394081
##########                DOCK_Rotatable_Bonds:                   8
##########                         Heavy_Atoms:                  27
##########                    Molecular_Weight:             389.878
##########                DOCK_Rotatable_Bonds:                   8
##########                       Formal_Charge:          -0.0300003
##########                     HBond_Acceptors:                   6
##########                        HBond_Donors:                   1
##########                         Heavy_Atoms:                  27
##########                          Grid_Score:          -35.540699
##########                     Grid_vdw_energy:          -35.168007
##########                      Grid_es_energy:           -0.372693
##########           Internal_energy_repulsive:           33.137981

@<TRIPOS>MOLECULE
ZINC000443394081
 51 53 1 0 0
SMALL
USER_CHARGES


@<TRIPOS>ATOM
      1 C1        -14.0862   -2.6436   61.0323 C.3     1  ZINC000443394081    0.0200
      2 O2        -12.9727   -2.1303   60.2983 O.3     1  ZINC000443394081   -0.3000
      3 C3        -12.3714   -2.9745   59.4180 C.ar    1  ZINC000443394081    0.1000
      4 C4        -12.9893   -3.2789   58.2210 C.ar    1  ZINC000443394081   -0.1200
      5 C5        -12.3682   -4.1466   57.3182 C.ar    1  ZINC000443394081   -0.1300
      6 C6        -13.0241   -4.4748   56.0373 C.2     1  ZINC000443394081    0.5700
      7 O7        -14.0126   -5.1827   56.0242 O.2     1  ZINC000443394081   -0.4900
      8 N8        -12.5274   -3.9898   54.8822 N.am    1  ZINC000443394081   -0.6100
      9 C9        -13.0805   -4.2372   53.5382 C.3     1  ZINC000443394081    0.0900
     10 C10       -12.5982   -3.0382   52.6839 C.3     1  ZINC000443394081   -0.1300
     11 C11       -11.1748   -2.8020   53.2542 C.3     1  ZINC000443394081   -0.1000
     12 H12       -10.4570   -3.4800   52.7926 H       1  ZINC000443394081    0.0900
     13 C13       -10.7468   -1.3466   53.0558 C.3     1  ZINC000443394081   -0.1500
     14 C14       -11.3483   -3.1210   54.7540 C.3     1  ZINC000443394081    0.1400
     15 H15       -10.4670   -3.6435   55.1263 H       1  ZINC000443394081    0.0800
     16 C16       -11.5559   -1.8254   55.5410 C.3     1  ZINC000443394081    0.0600
     17 O17       -12.8543   -1.2995   55.2586 O.3     1  ZINC000443394081   -0.5400
     18 C18       -11.1254   -4.7020   57.6306 C.ar    1  ZINC000443394081   -0.1000
     19 C19       -10.5142   -4.3946   58.8272 C.ar    1  ZINC000443394081   -0.1800
     20 C20       -11.1281   -3.5285   59.7212 C.ar    1  ZINC000443394081    0.1300
     21 O21       -10.5220   -3.2287   60.8988 O.3     1  ZINC000443394081   -0.3000
     22 C22        -9.4568   -2.2770   60.8563 C.3     1  ZINC000443394081    0.1000
     23 C23       -10.0168   -0.8883   61.0266 C.ar    1  ZINC000443394081   -0.0800
     24 C24       -10.4769   -0.4753   62.2626 C.ar    1  ZINC000443394081   -0.0800
     25 C25       -10.9908    0.7986   62.4189 C.ar    1  ZINC000443394081   -0.1100
     26 C26       -11.0453    1.6598   61.3392 C.ar    1  ZINC000443394081   -0.1000
     27 C27       -10.5854    1.2479   60.1023 C.ar    1  ZINC000443394081   -0.1100
     28 C28       -10.0654   -0.0244   59.9467 C.ar    1  ZINC000443394081   -0.0300
     29 Cl29       -9.4877   -0.5425   58.3938 Cl      1  ZINC000443394081   -0.0700
     30 H30       -14.4713   -1.8700   61.6966 H       1  ZINC000443394081    0.1000
     31 H31       -14.8691   -2.9491   60.3381 H       1  ZINC000443394081    0.0600
     32 H32       -13.7676   -3.5033   61.6218 H       1  ZINC000443394081    0.0600
     33 H33       -13.9504   -2.8476   57.9832 H       1  ZINC000443394081    0.1500
     34 H34       -12.6915   -5.1717   53.1340 H       1  ZINC000443394081    0.0700
     35 H35       -14.1696   -4.2631   53.5749 H       1  ZINC000443394081    0.0800
     36 H36       -12.5569   -3.3029   51.6274 H       1  ZINC000443394081    0.0900
     37 H37       -13.2322   -2.1658   52.8421 H       1  ZINC000443394081    0.0800
     38 H38       -11.4606   -0.6874   53.5497 H       1  ZINC000443394081    0.0600
     39 H39        -9.7564   -1.1972   53.4859 H       1  ZINC000443394081    0.0600
     40 H40       -10.7183   -1.1183   51.9903 H       1  ZINC000443394081    0.0600
     41 H41       -11.4714   -2.0310   56.6080 H       1  ZINC000443394081    0.0600
     42 H42       -10.7981   -1.0981   55.2499 H       1  ZINC000443394081    0.0400
     43 H43       -12.9939   -1.0750   54.3284 H       1  ZINC000443394081    0.3700
     44 H44       -10.6435   -5.3727   56.9348 H       1  ZINC000443394081    0.1400
     45 H45        -9.5534   -4.8251   59.0676 H       1  ZINC000443394081    0.1400
     46 H46        -8.7512   -2.4853   61.6606 H       1  ZINC000443394081    0.0800
     47 H47        -8.9450   -2.3472   59.8966 H       1  ZINC000443394081    0.0800
     48 H48       -10.4352   -1.1481   63.1065 H       1  ZINC000443394081    0.1400
     49 H49       -11.3502    1.1209   63.3851 H       1  ZINC000443394081    0.1300
     50 H50       -11.4475    2.6546   61.4618 H       1  ZINC000443394081    0.1300
     51 H51       -10.6280    1.9209   59.2587 H       1  ZINC000443394081    0.1400
@<TRIPOS>BOND
     1     1     2    1
     2     1    30    1
     3     1    31    1
     4     1    32    1
     5     2     3    1
     6     3    20   ar
     7     3     4   ar
     8     4     5   ar
     9     4    33    1
    10     5     6    1
    11     5    18   ar
    12     6     7    2
    13     6     8   am
    14     8    14    1
    15     8     9    1
    16     9    10    1
    17     9    34    1
    18     9    35    1
    19    10    11    1
    20    10    36    1
    21    10    37    1
    22    11    12    1
    23    11    13    1
    24    11    14    1
    25    13    38    1
    26    13    39    1
    27    13    40    1
    28    14    15    1
    29    14    16    1
    30    16    17    1
    31    16    41    1
    32    16    42    1
    33    17    43    1
    34    18    19   ar
    35    18    44    1
    36    19    20   ar
    37    19    45    1
    38    20    21    1
    39    21    22    1
    40    22    23    1
    41    22    46    1
    42    22    47    1
    43    23    28   ar
    44    23    24   ar
    45    24    25   ar
    46    24    48    1
    47    25    26   ar
    48    25    49    1
    49    26    27   ar
    50    26    50    1
    51    27    28   ar
    52    27    51    1
    53    28    29    1
@<TRIPOS>SUBSTRUCTURE
     1 ZINC000443394081        1 TEMP              0 ****  ****    0 ROOT


##########                                Name:    ZINC001143596311
##########                DOCK_Rotatable_Bonds:                   9
##########                         Heavy_Atoms:                  21
##########                    Molecular_Weight:             335.811
##########                DOCK_Rotatable_Bonds:                   9
##########                       Formal_Charge:          0.00999959
##########                     HBond_Acceptors:                   9
##########                        HBond_Donors:                   3
##########                         Heavy_Atoms:                  21
##########                          Grid_Score:          -35.513802
##########                     Grid_vdw_energy:          -32.123734
##########                      Grid_es_energy:           -3.390068
##########           Internal_energy_repulsive:           14.515843

@<TRIPOS>MOLECULE
ZINC001143596311
 39 39 1 0 0
SMALL
USER_CHARGES


@<TRIPOS>ATOM
      1 C1         -3.2198    1.6131   63.7774 C.3     1  ZINC001143596311    0.0400
      2 O2         -3.0672    1.5925   65.1981 O.3     1  ZINC001143596311   -0.2600
      3 N3         -4.2363    2.0812   65.9293 N.3     1  ZINC001143596311   -0.3700
      4 C4         -4.5230    3.4811   65.5886 C.3     1  ZINC001143596311    0.0000
      5 C5         -5.4067    1.2287   65.6812 C.3     1  ZINC001143596311    0.0400
      6 C6         -6.4496    1.4629   66.7758 C.3     1  ZINC001143596311   -0.1300
      7 C7         -7.5424    0.3968   66.6756 C.3     1  ZINC001143596311    0.1200
      8 N8         -8.2427    0.5340   65.3961 N.am    1  ZINC001143596311   -0.7200
      9 C9         -8.8814   -0.5250   64.8605 C.2     1  ZINC001143596311    0.5600
     10 O10        -8.8778   -1.5937   65.4398 O.2     1  ZINC001143596311   -0.5200
     11 C11        -9.5864   -0.3870   63.5690 C.ar    1  ZINC001143596311   -0.1500
     12 C12       -10.4640    0.6783   63.3600 C.ar    1  ZINC001143596311   -0.0200
     13 C13       -11.1189    0.8019   62.1526 C.ar    1  ZINC001143596311   -0.1300
     14 C14       -10.9077   -0.1285   61.1487 C.ar    1  ZINC001143596311    0.0700
     15 Cl15      -11.7358    0.0336   59.6315 Cl      1  ZINC001143596311   -0.0200
     16 C16       -10.0379   -1.1878   61.3502 C.ar    1  ZINC001143596311   -0.6800
     17 S17        -9.7753   -2.3662   60.0668 S.o2    1  ZINC001143596311    2.7000
     18 N18       -11.2657   -2.8847   59.5649 N.am    1  ZINC001143596311   -1.2500
     19 O19        -9.2104   -1.6520   58.9759 O.2     1  ZINC001143596311   -0.9400
     20 O20        -9.1441   -3.4858   60.6730 O.2     1  ZINC001143596311   -0.9500
     21 C21        -9.3728   -1.3184   62.5508 C.ar    1  ZINC001143596311    0.0500
     22 H22        -4.0632    0.9836   63.4934 H       1  ZINC001143596311    0.0400
     23 H23        -3.4020    2.6356   63.4464 H       1  ZINC001143596311    0.0500
     24 H24        -2.3108    1.2360   63.3088 H       1  ZINC001143596311    0.0900
     25 H25        -4.7204    3.5617   64.5196 H       1  ZINC001143596311    0.0400
     26 H26        -5.3966    3.8190   66.1460 H       1  ZINC001143596311    0.0900
     27 H27        -3.6647    4.1011   65.8474 H       1  ZINC001143596311    0.0800
     28 H28        -5.8369    1.4758   64.7106 H       1  ZINC001143596311    0.0500
     29 H29        -5.1018    0.1822   65.6876 H       1  ZINC001143596311    0.0900
     30 H30        -5.9707    1.4014   67.7531 H       1  ZINC001143596311    0.0800
     31 H31        -6.8929    2.4507   66.6500 H       1  ZINC001143596311    0.0800
     32 H32        -7.0910   -0.5933   66.7384 H       1  ZINC001143596311    0.0800
     33 H33        -8.2514    0.5253   67.4934 H       1  ZINC001143596311    0.0800
     34 H34        -8.2465    1.3871   64.9344 H       1  ZINC001143596311    0.4000
     35 H35       -10.6300    1.4041   64.1424 H       1  ZINC001143596311    0.1500
     36 H36       -11.7981    1.6256   61.9897 H       1  ZINC001143596311    0.1600
     37 H37       -11.9047   -2.2493   59.2057 H       1  ZINC001143596311    0.4200
     38 H38       -11.4998   -3.8238   59.6299 H       1  ZINC001143596311    0.4200
     39 H39        -8.6950   -2.1447   62.7068 H       1  ZINC001143596311    0.1700
@<TRIPOS>BOND
     1     1     2    1
     2     1    22    1
     3     1    23    1
     4     1    24    1
     5     2     3    1
     6     3     4    1
     7     3     5    1
     8     4    25    1
     9     4    26    1
    10     4    27    1
    11     5     6    1
    12     5    28    1
    13     5    29    1
    14     6     7    1
    15     6    30    1
    16     6    31    1
    17     7     8    1
    18     7    32    1
    19     7    33    1
    20     8     9   am
    21     8    34    1
    22     9    10    2
    23     9    11    1
    24    11    21   ar
    25    11    12   ar
    26    12    13   ar
    27    12    35    1
    28    13    14   ar
    29    13    36    1
    30    14    15    1
    31    14    16   ar
    32    16    17    1
    33    16    21   ar
    34    17    18   am
    35    17    19    2
    36    17    20    2
    37    18    37    1
    38    18    38    1
    39    21    39    1
@<TRIPOS>SUBSTRUCTURE
     1 ZINC001143596311        1 TEMP              0 ****  ****    0 ROOT


##########                                Name:    ZINC000012979878
##########                DOCK_Rotatable_Bonds:                   7
##########                         Heavy_Atoms:                  26
##########                    Molecular_Weight:             388.874
##########                DOCK_Rotatable_Bonds:                   7
##########                       Formal_Charge:          -0.0100003
##########                     HBond_Acceptors:                   7
##########                        HBond_Donors:                   1
##########                         Heavy_Atoms:                  26
##########                          Grid_Score:          -35.509979
##########                     Grid_vdw_energy:          -35.641430
##########                      Grid_es_energy:            0.131452
##########           Internal_energy_repulsive:           13.821429

@<TRIPOS>MOLECULE
ZINC000012979878
 43 45 1 0 0
SMALL
USER_CHARGES


@<TRIPOS>ATOM
      1 C1        -15.6855   -3.3822   52.7827 C.3     1  <0>         0.0300
      2 O2        -15.4015   -4.1809   53.9332 O.3     1  <0>        -0.3100
      3 C3        -14.1815   -4.0203   54.5098 C.ar    1  <0>         0.1500
      4 C4        -13.8330   -4.7773   55.6195 C.ar    1  <0>        -0.2200
      5 C5        -12.5927   -4.6149   56.2074 C.ar    1  <0>        -0.0600
      6 C6        -11.6961   -3.6993   55.6924 C.ar    1  <0>        -0.1800
      7 C7        -12.0395   -2.9385   54.5815 C.ar    1  <0>         0.1800
      8 N8        -11.1317   -2.0115   54.0601 N.am    1  <0>        -0.6700
      9 C9        -10.6593   -2.1625   52.8068 C.2     1  <0>         0.6000
     10 O10       -11.0229   -3.1056   52.1291 O.2     1  <0>        -0.4900
     11 C11        -9.7073   -1.1903   52.2600 C.2     1  <0>        -0.3000
     12 C12        -9.8336    0.1602   52.2955 C.2     1  <0>         0.1600
     13 C13       -11.0127    0.8559   52.9255 C.3     1  <0>        -0.0900
     14 N14        -8.8420    0.8066   51.7357 N.2     1  <0>        -0.4500
     15 C15        -7.8833    0.1011   51.2275 C.2     1  <0>         0.0600
     16 C16        -6.6655    0.6693   50.5455 C.3     1  <0>         0.1300
     17 O17        -6.0855    1.6810   51.3715 O.3     1  <0>        -0.3000
     18 C18        -4.8183    2.0707   51.0719 C.ar    1  <0>         0.1300
     19 C19        -4.0217    2.6523   52.0473 C.ar    1  <0>        -0.2000
     20 C20        -2.7340    3.0479   51.7409 C.ar    1  <0>        -0.0700
     21 C21        -2.2388    2.8644   50.4619 C.ar    1  <0>        -0.0700
     22 Cl22       -0.6205    3.3627   50.0791 Cl      1  <0>        -0.0700
     23 C23        -3.0318    2.2840   49.4879 C.ar    1  <0>        -0.0700
     24 C24        -4.3180    1.8820   49.7919 C.ar    1  <0>        -0.1300
     25 S25        -8.1905   -1.5664   51.4457 S.3     1  <0>         0.2000
     26 C26       -13.2822   -3.1044   53.9865 C.ar    1  <0>        -0.1500
     27 H27       -15.6239   -2.3270   53.0487 H       1  <0>         0.0600
     28 H28       -14.9602   -3.6025   51.9994 H       1  <0>         0.0600
     29 H29       -16.6891   -3.6081   52.4223 H       1  <0>         0.1000
     30 H30       -14.5321   -5.4941   56.0244 H       1  <0>         0.1300
     31 H31       -12.3244   -5.2048   57.0713 H       1  <0>         0.1300
     32 H32       -10.7275   -3.5743   56.1537 H       1  <0>         0.1300
     33 H33       -10.8418   -1.2598   54.6003 H       1  <0>         0.4100
     34 H34       -10.8023    1.0463   53.9780 H       1  <0>         0.0900
     35 H35       -11.1923    1.8016   52.4142 H       1  <0>         0.0800
     36 H36       -11.8960    0.2232   52.8402 H       1  <0>         0.1000
     37 H37        -5.9381   -0.1253   50.3795 H       1  <0>         0.0900
     38 H38        -6.9544    1.1033   49.5882 H       1  <0>         0.1000
     39 H39        -4.4081    2.7964   53.0455 H       1  <0>         0.1400
     40 H40        -2.1135    3.5007   52.5000 H       1  <0>         0.1400
     41 H41        -2.6434    2.1413   48.4902 H       1  <0>         0.1400
     42 H42        -4.9366    1.4290   49.0313 H       1  <0>         0.1400
     43 H43       -13.5515   -2.5147   53.1228 H       1  <0>         0.1400
@<TRIPOS>BOND
     1     1     2    1
     2     1    27    1
     3     1    28    1
     4     1    29    1
     5     2     3    1
     6     3    26   ar
     7     3     4   ar
     8     4     5   ar
     9     4    30    1
    10     5     6   ar
    11     5    31    1
    12     6     7   ar
    13     6    32    1
    14     7     8    1
    15     7    26   ar
    16     8     9   am
    17     8    33    1
    18     9    10    2
    19     9    11    1
    20    11    25    1
    21    11    12    2
    22    12    13    1
    23    12    14    1
    24    13    34    1
    25    13    35    1
    26    13    36    1
    27    14    15    2
    28    15    16    1
    29    15    25    1
    30    16    17    1
    31    16    37    1
    32    16    38    1
    33    17    18    1
    34    18    24   ar
    35    18    19   ar
    36    19    20   ar
    37    19    39    1
    38    20    21   ar
    39    20    40    1
    40    21    22    1
    41    21    23   ar
    42    23    24   ar
    43    23    41    1
    44    24    42    1
    45    26    43    1
@<TRIPOS>SUBSTRUCTURE
     1 <0>         1 TEMP              0 ****  ****    0 ROOT


##########                                Name:    ZINC000195331548
##########                DOCK_Rotatable_Bonds:                   7
##########                         Heavy_Atoms:                  26
##########                    Molecular_Weight:             378.539
##########                DOCK_Rotatable_Bonds:                   7
##########                       Formal_Charge:          -0.0100004
##########                     HBond_Acceptors:                   7
##########                        HBond_Donors:                   2
##########                         Heavy_Atoms:                  26
##########                          Grid_Score:          -35.491177
##########                     Grid_vdw_energy:          -35.243683
##########                      Grid_es_energy:           -0.247493
##########           Internal_energy_repulsive:           25.474894

@<TRIPOS>MOLECULE
ZINC000195331548
 56 58 1 0 0
SMALL
USER_CHARGES


@<TRIPOS>ATOM
      1 C1         -8.5717    1.1216   65.6536 C.3     1  ZINC000195331548   -0.0800
      2 C2         -9.5765    1.4523   64.5804 C.2     1  ZINC000195331548    0.0700
      3 C3        -10.2073    2.6288   64.5182 C.2     1  ZINC000195331548   -0.2600
      4 S4        -11.2781    2.5969   63.1194 S.3     1  ZINC000195331548    0.1100
      5 C5        -10.7774    1.0016   62.7620 C.2     1  ZINC000195331548    0.0600
      6 C6        -11.2780    0.1799   61.6021 C.3     1  ZINC000195331548   -0.0100
      7 H7        -11.3881    0.8171   60.7246 H       1  ZINC000195331548    0.1100
      8 C8        -12.6333   -0.4365   61.9595 C.3     1  ZINC000195331548   -0.1200
      9 C9        -13.1062   -1.3176   60.7999 C.3     1  ZINC000195331548   -0.1100
     10 C10       -12.0536   -2.3926   60.5202 C.3     1  ZINC000195331548    0.0500
     11 N11       -10.7759   -1.7523   60.1826 N.3     1  ZINC000195331548   -0.5200
     12 C12        -9.7787   -2.7505   59.7734 C.3     1  ZINC000195331548    0.0400
     13 C13       -10.3026   -3.5298   58.5948 C.2     1  ZINC000195331548    0.5100
     14 O14       -10.2306   -4.7400   58.5878 O.2     1  ZINC000195331548   -0.4400
     15 N15       -10.8513   -2.8813   57.5483 N.am    1  ZINC000195331548   -0.7000
     16 C16       -11.3184   -3.5781   56.4935 C.2     1  ZINC000195331548    0.6900
     17 O17       -11.2435   -4.7912   56.4852 O.2     1  ZINC000195331548   -0.5300
     18 N18       -11.8685   -2.9298   55.4478 N.am    1  ZINC000195331548   -0.7300
     19 C19       -12.3778   -3.6875   54.3019 C.3     1  ZINC000195331548    0.1700
     20 H20       -12.6813   -4.6817   54.6297 H       1  ZINC000195331548    0.0900
     21 C21       -11.2795   -3.8121   53.2442 C.3     1  ZINC000195331548   -0.1300
     22 C22       -10.8535   -2.4165   52.7842 C.3     1  ZINC000195331548   -0.1200
     23 C23       -12.0579   -1.6873   52.1853 C.3     1  ZINC000195331548   -0.1200
     24 C24       -13.1563   -1.5625   53.2430 C.3     1  ZINC000195331548   -0.1100
     25 C25       -13.5822   -2.9582   53.7031 C.3     1  ZINC000195331548   -0.1000
     26 H26       -13.9611   -3.5218   52.8505 H       1  ZINC000195331548    0.0900
     27 C27       -14.6805   -2.8334   54.7609 C.3     1  ZINC000195331548   -0.1500
     28 C28       -10.2784   -0.9386   61.2991 C.3     1  ZINC000195331548    0.0600
     29 N29        -9.9049    0.6051   63.6258 N.2     1  ZINC000195331548   -0.4700
     30 H30        -7.5758    1.4152   65.3220 H       1  ZINC000195331548    0.0800
     31 H31        -8.8243    1.6611   66.5665 H       1  ZINC000195331548    0.0800
     32 H32        -8.5882    0.0494   65.8489 H       1  ZINC000195331548    0.0800
     33 H33       -10.0802    3.4548   65.2024 H       1  ZINC000195331548    0.1800
     34 H34       -12.5317   -1.0427   62.8597 H       1  ZINC000195331548    0.0600
     35 H35       -13.3596    0.3571   62.1349 H       1  ZINC000195331548    0.0700
     36 H36       -14.0503   -1.7930   61.0656 H       1  ZINC000195331548    0.0800
     37 H37       -13.2451   -0.7039   59.9097 H       1  ZINC000195331548    0.0800
     38 H38       -12.3806   -3.0128   59.6857 H       1  ZINC000195331548    0.0800
     39 H39       -11.9252   -3.0144   61.4062 H       1  ZINC000195331548    0.0400
     40 H40        -9.5852   -3.4315   60.6022 H       1  ZINC000195331548    0.1200
     41 H41        -8.8537   -2.2465   59.4935 H       1  ZINC000195331548    0.0700
     42 H42       -10.9100   -1.9132   57.5544 H       1  ZINC000195331548    0.4100
     43 H43       -11.9272   -1.9616   55.4538 H       1  ZINC000195331548    0.4000
     44 H44       -11.6584   -4.3758   52.3916 H       1  ZINC000195331548    0.0700
     45 H45       -10.4214   -4.3318   53.6707 H       1  ZINC000195331548    0.0700
     46 H46       -10.0710   -2.5054   52.0305 H       1  ZINC000195331548    0.0600
     47 H47       -10.4746   -1.8529   53.6366 H       1  ZINC000195331548    0.0600
     48 H48       -11.7544   -0.6930   51.8576 H       1  ZINC000195331548    0.0600
     49 H49       -12.4368   -2.2510   51.3328 H       1  ZINC000195331548    0.0600
     50 H50       -12.7772   -0.9989   54.0956 H       1  ZINC000195331548    0.0600
     51 H51       -14.0143   -1.0430   52.8165 H       1  ZINC000195331548    0.0700
     52 H52       -14.3016   -2.2698   55.6134 H       1  ZINC000195331548    0.0500
     53 H53       -15.5385   -2.3139   54.3342 H       1  ZINC000195331548    0.0600
     54 H54       -14.9839   -3.8277   55.0887 H       1  ZINC000195331548    0.0600
     55 H55       -10.1584   -1.5672   62.1815 H       1  ZINC000195331548    0.0400
     56 H56        -9.3161   -0.5027   61.0303 H       1  ZINC000195331548    0.0900
@<TRIPOS>BOND
     1     1     2    1
     2     1    30    1
     3     1    31    1
     4     1    32    1
     5     2    29    1
     6     2     3    2
     7     3     4    1
     8     3    33    1
     9     4     5    1
    10     5     6    1
    11     5    29    2
    12     6     7    1
    13     6    28    1
    14     6     8    1
    15     8     9    1
    16     8    34    1
    17     8    35    1
    18     9    10    1
    19     9    36    1
    20     9    37    1
    21    10    11    1
    22    10    38    1
    23    10    39    1
    24    11    12    1
    25    11    28    1
    26    12    13    1
    27    12    40    1
    28    12    41    1
    29    13    14    2
    30    13    15   am
    31    15    16   am
    32    15    42    1
    33    16    17    2
    34    16    18   am
    35    18    19    1
    36    18    43    1
    37    19    20    1
    38    19    25    1
    39    19    21    1
    40    21    22    1
    41    21    44    1
    42    21    45    1
    43    22    23    1
    44    22    46    1
    45    22    47    1
    46    23    24    1
    47    23    48    1
    48    23    49    1
    49    24    25    1
    50    24    50    1
    51    24    51    1
    52    25    26    1
    53    25    27    1
    54    27    52    1
    55    27    53    1
    56    27    54    1
    57    28    55    1
    58    28    56    1
@<TRIPOS>SUBSTRUCTURE
     1 ZINC000195331548        1 TEMP              0 ****  ****    0 ROOT


##########                                Name:    ZINC000179496896
##########                DOCK_Rotatable_Bonds:                   8
##########                         Heavy_Atoms:                  27
##########                    Molecular_Weight:             396.504
##########                DOCK_Rotatable_Bonds:                   8
##########                       Formal_Charge:          0.00999944
##########                     HBond_Acceptors:                   8
##########                        HBond_Donors:                   1
##########                         Heavy_Atoms:                  27
##########                          Grid_Score:          -35.478638
##########                     Grid_vdw_energy:          -34.870098
##########                      Grid_es_energy:           -0.608538
##########           Internal_energy_repulsive:           25.257572

@<TRIPOS>MOLECULE
ZINC000179496896
 53 55 1 0 0
SMALL
USER_CHARGES


@<TRIPOS>ATOM
      1 C1          4.3767    0.1341   39.6034 C.3     1  ZINC000179496896   -0.1500
      2 C2          3.3214   -0.1982   40.6602 C.3     1  ZINC000179496896   -0.1100
      3 C3          3.9978   -0.3600   42.0230 C.3     1  ZINC000179496896   -0.1400
      4 C4          2.2960    0.9351   40.7310 C.3     1  ZINC000179496896    0.1200
      5 N5          1.1030    0.4703   41.4430 N.pl3   1  ZINC000179496896   -0.3300
      6 N6          0.2304   -0.5335   41.0081 N.2     1  ZINC000179496896   -0.2700
      7 C7         -0.7174   -0.6816   41.8920 C.2     1  ZINC000179496896    0.0800
      8 C8         -0.4837    0.2353   42.9413 C.2     1  ZINC000179496896   -0.2500
      9 C9         -1.3088    0.4106   44.1504 C.2     1  ZINC000179496896    0.5900
     10 O10        -2.4942    0.1408   44.1220 O.2     1  ZINC000179496896   -0.5300
     11 N11        -0.7493    0.8698   45.2874 N.am    1  ZINC000179496896   -0.7100
     12 C12        -1.5690    1.0422   46.4894 C.3     1  ZINC000179496896    0.1300
     13 C13        -1.6917    2.5325   46.8133 C.3     1  ZINC000179496896    0.0700
     14 H14        -0.7019    2.9889   46.8046 H       1  ZINC000179496896    0.0900
     15 C15        -2.5756    3.2112   45.7650 C.3     1  ZINC000179496896   -0.1900
     16 N16        -2.2948    2.6967   48.1427 N.3     1  ZINC000179496896   -0.5300
     17 C17        -1.2680    2.6693   49.1940 C.3     1  ZINC000179496896    0.0600
     18 C18        -1.8619    3.2341   50.4901 C.3     1  ZINC000179496896   -0.0400
     19 C19        -3.1916    2.5520   50.7337 C.2     1  ZINC000179496896   -0.1700
     20 C20        -3.8609    1.8507   49.7972 C.2     1  ZINC000179496896   -0.1100
     21 C21        -5.0591    1.3133   50.2533 C.2     1  ZINC000179496896   -0.1200
     22 C22        -5.3588    1.5697   51.5236 C.2     1  ZINC000179496896   -0.2200
     23 S23        -4.0873    2.5467   52.2440 S.3     1  ZINC000179496896    0.1000
     24 C24        -3.3293    1.6811   48.3805 C.3     1  ZINC000179496896    0.1200
     25 C25         0.6658    0.9316   42.6256 C.2     1  ZINC000179496896    0.0700
     26 C26         1.3061    2.0173   43.4516 C.3     1  ZINC000179496896    0.3400
     27 F27         2.4507    1.5128   44.0782 F       1  ZINC000179496896   -0.1500
     28 F28         1.6615    3.0862   42.6219 F       1  ZINC000179496896   -0.2000
     29 H29         5.1073   -0.6733   39.5529 H       1  ZINC000179496896    0.0600
     30 H30         3.8948    0.2493   38.6325 H       1  ZINC000179496896    0.0600
     31 H31         4.8798    1.0630   39.8719 H       1  ZINC000179496896    0.0600
     32 H32         2.8184   -1.1272   40.3917 H       1  ZINC000179496896    0.0800
     33 H33         4.5008    0.5690   42.2915 H       1  ZINC000179496896    0.0600
     34 H34         3.2460   -0.5968   42.7759 H       1  ZINC000179496896    0.0600
     35 H35         4.7283   -1.1674   41.9726 H       1  ZINC000179496896    0.0700
     36 H36         2.7282    1.7835   41.2616 H       1  ZINC000179496896    0.1000
     37 H37         2.0209    1.2398   39.7213 H       1  ZINC000179496896    0.1000
     38 H38        -1.5373   -1.3820   41.8322 H       1  ZINC000179496896    0.2000
     39 H39         0.1960    1.0861   45.3098 H       1  ZINC000179496896    0.4100
     40 H40        -2.5609    0.6253   46.3156 H       1  ZINC000179496896    0.0700
     41 H41        -1.0993    0.5259   47.3265 H       1  ZINC000179496896    0.0700
     42 H42        -2.6631    4.2728   45.9957 H       1  ZINC000179496896    0.0600
     43 H43        -2.1281    3.0893   44.7785 H       1  ZINC000179496896    0.0700
     44 H44        -3.5654    2.7547   45.7737 H       1  ZINC000179496896    0.0600
     45 H45        -0.9430    1.6421   49.3594 H       1  ZINC000179496896    0.0400
     46 H46        -0.4167    3.2772   48.8879 H       1  ZINC000179496896    0.0900
     47 H47        -1.1873    3.0335   51.3223 H       1  ZINC000179496896    0.0800
     48 H48        -2.0127    4.3088   50.3882 H       1  ZINC000179496896    0.0900
     49 H49        -5.7049    0.7260   49.6174 H       1  ZINC000179496896    0.1400
     50 H50        -6.2475    1.2295   52.0345 H       1  ZINC000179496896    0.1600
     51 H51        -4.1423    1.8128   47.6665 H       1  ZINC000179496896    0.0900
     52 H52        -2.8980    0.6863   48.2683 H       1  ZINC000179496896    0.0500
     53 H53         0.6007    2.3629   44.2072 H       1  ZINC000179496896    0.1300
@<TRIPOS>BOND
     1     1     2    1
     2     1    29    1
     3     1    30    1
     4     1    31    1
     5     2     3    1
     6     2     4    1
     7     2    32    1
     8     3    33    1
     9     3    34    1
    10     3    35    1
    11     4     5    1
    12     4    36    1
    13     4    37    1
    14     5    25    1
    15     5     6    1
    16     6     7    2
    17     7     8    1
    18     7    38    1
    19     8     9    1
    20     8    25    2
    21     9    10    2
    22     9    11   am
    23    11    12    1
    24    11    39    1
    25    12    13    1
    26    12    40    1
    27    12    41    1
    28    13    14    1
    29    13    15    1
    30    13    16    1
    31    15    42    1
    32    15    43    1
    33    15    44    1
    34    16    24    1
    35    16    17    1
    36    17    18    1
    37    17    45    1
    38    17    46    1
    39    18    19    1
    40    18    47    1
    41    18    48    1
    42    19    23    1
    43    19    20    2
    44    20    21    1
    45    20    24    1
    46    21    22    2
    47    21    49    1
    48    22    23    1
    49    22    50    1
    50    24    51    1
    51    24    52    1
    52    25    26    1
    53    26    27    1
    54    26    28    1
    55    26    53    1
@<TRIPOS>SUBSTRUCTURE
     1 ZINC000179496896        1 TEMP              0 ****  ****    0 ROOT


##########                                Name:    ZINC000432833246
##########                DOCK_Rotatable_Bonds:                   5
##########                         Heavy_Atoms:                  25
##########                    Molecular_Weight:             400.318
##########                DOCK_Rotatable_Bonds:                   5
##########                       Formal_Charge:        -3.20375e-07
##########                     HBond_Acceptors:                   4
##########                        HBond_Donors:                   1
##########                         Heavy_Atoms:                  25
##########                          Grid_Score:          -35.471310
##########                     Grid_vdw_energy:          -35.035095
##########                      Grid_es_energy:           -0.436213
##########           Internal_energy_repulsive:           10.854233

@<TRIPOS>MOLECULE
ZINC000432833246
 47 51 1 0 0
SMALL
USER_CHARGES


@<TRIPOS>ATOM
      1 O1        -10.4663   -2.0920   51.6711 O.2     1  ZINC000432833246   -0.5200
      2 C2        -11.0344   -2.4274   52.6889 C.2     1  ZINC000432833246    0.5200
      3 C3        -11.6564   -3.7858   52.9266 C.3     1  ZINC000432833246   -0.1500
      4 C4        -11.8573   -3.8479   54.4586 C.3     1  ZINC000432833246   -0.1100
      5 H5        -11.0053   -4.3232   54.9447 H       1  ZINC000432833246    0.1000
      6 C6        -13.1587   -4.5710   54.8111 C.3     1  ZINC000432833246    0.1300
      7 N7        -13.0516   -5.1413   56.1564 N.pl3   1  ZINC000432833246   -0.7200
      8 C8        -12.8350   -4.3114   57.2459 C.ar    1  ZINC000432833246    0.2800
      9 C9        -13.9185   -3.7681   57.9765 C.ar    1  ZINC000432833246   -0.1500
     10 C10       -15.2471   -4.0481   57.6277 C.ar    1  ZINC000432833246   -0.0700
     11 C11       -16.2635   -3.5065   58.3557 C.ar    1  ZINC000432833246   -0.1300
     12 C12       -15.9997   -2.6771   59.4429 C.ar    1  ZINC000432833246   -0.0600
     13 C13       -14.7206   -2.3848   59.8087 C.ar    1  ZINC000432833246   -0.0800
     14 Br14      -14.3913   -1.2561   61.2898 Br      1  ZINC000432833246   -0.0300
     15 C15       -13.6458   -2.9263   59.0809 C.ar    1  ZINC000432833246    0.1900
     16 N16       -12.3798   -2.6563   59.4185 N.ar    1  ZINC000432833246   -0.5000
     17 C17       -11.3664   -3.1546   58.7488 C.ar    1  ZINC000432833246    0.2400
     18 C18        -9.9640   -2.8117   59.1805 C.3     1  ZINC000432833246   -0.1100
     19 C19        -9.7070   -2.6454   60.6796 C.3     1  ZINC000432833246   -0.1700
     20 C20        -9.1792   -3.8795   59.9452 C.3     1  ZINC000432833246   -0.1600
     21 C21       -11.5505   -3.9923   57.6575 C.ar    1  ZINC000432833246   -0.2700
     22 C22       -11.9390   -2.3499   54.8265 C.3     1  ZINC000432833246    0.1100
     23 N23       -11.1979   -1.6482   53.7718 N.am    1  ZINC000432833246   -0.5900
     24 C24       -10.7073   -0.2722   53.8818 C.3     1  ZINC000432833246    0.0800
     25 C25       -11.5638    0.7226   54.6678 C.3     1  ZINC000432833246   -0.1900
     26 C26       -10.2513    0.2071   55.2614 C.3     1  ZINC000432833246   -0.1900
     27 H27       -12.6146   -3.8619   52.4128 H       1  ZINC000432833246    0.1100
     28 H28       -10.9823   -4.5768   52.5979 H       1  ZINC000432833246    0.1000
     29 H29       -13.9872   -3.8632   54.7815 H       1  ZINC000432833246    0.0800
     30 H30       -13.3372   -5.3697   54.0911 H       1  ZINC000432833246    0.0700
     31 H31       -13.1322   -6.0993   56.2848 H       1  ZINC000432833246    0.4000
     32 H32       -15.4638   -4.6893   56.7861 H       1  ZINC000432833246    0.1300
     33 H33       -17.2867   -3.7228   58.0861 H       1  ZINC000432833246    0.1400
     34 H34       -16.8219   -2.2589   60.0044 H       1  ZINC000432833246    0.1400
     35 H35        -9.4065   -2.1685   58.4996 H       1  ZINC000432833246    0.1300
     36 H36        -8.9804   -1.8925   60.9851 H       1  ZINC000432833246    0.1000
     37 H37       -10.5523   -2.7840   61.3535 H       1  ZINC000432833246    0.1000
     38 H38        -9.6773   -4.8300   60.1361 H       1  ZINC000432833246    0.0900
     39 H39        -8.1053   -3.9385   59.7677 H       1  ZINC000432833246    0.1000
     40 H40       -10.6969   -4.3871   57.1267 H       1  ZINC000432833246    0.1400
     41 H41       -12.9784   -2.0220   54.8443 H       1  ZINC000432833246    0.0800
     42 H42       -11.4704   -2.1732   55.7946 H       1  ZINC000432833246    0.0900
     43 H43       -10.1662    0.1049   53.0139 H       1  ZINC000432833246    0.1300
     44 H44       -11.5866    1.7543   54.3169 H       1  ZINC000432833246    0.1000
     45 H45       -12.4924    0.3532   55.1030 H       1  ZINC000432833246    0.1300
     46 H46       -10.3163   -0.5013   56.0872 H       1  ZINC000432833246    0.0900
     47 H47        -9.4105    0.8998   55.3010 H       1  ZINC000432833246    0.1000
@<TRIPOS>BOND
     1     1     2    2
     2     2    23   am
     3     2     3    1
     4     3     4    1
     5     3    27    1
     6     3    28    1
     7     4     5    1
     8     4     6    1
     9     4    22    1
    10     6     7    1
    11     6    29    1
    12     6    30    1
    13     7     8    1
    14     7    31    1
    15     8    21   ar
    16     8     9   ar
    17     9    15   ar
    18     9    10   ar
    19    10    11   ar
    20    10    32    1
    21    11    12   ar
    22    11    33    1
    23    12    13   ar
    24    12    34    1
    25    13    14    1
    26    13    15   ar
    27    15    16   ar
    28    16    17   ar
    29    17    18    1
    30    17    21   ar
    31    18    20    1
    32    18    19    1
    33    18    35    1
    34    19    20    1
    35    19    36    1
    36    19    37    1
    37    20    38    1
    38    20    39    1
    39    21    40    1
    40    22    23    1
    41    22    41    1
    42    22    42    1
    43    23    24    1
    44    24    26    1
    45    24    25    1
    46    24    43    1
    47    25    26    1
    48    25    44    1
    49    25    45    1
    50    26    46    1
    51    26    47    1
@<TRIPOS>SUBSTRUCTURE
     1 ZINC000432833246        1 TEMP              0 ****  ****    0 ROOT


##########                                Name:    ZINC000482910431
##########                DOCK_Rotatable_Bonds:                   7
##########                         Heavy_Atoms:                  29
##########                    Molecular_Weight:             414.867
##########                DOCK_Rotatable_Bonds:                   7
##########                       Formal_Charge:          -0.0300001
##########                     HBond_Acceptors:                   8
##########                        HBond_Donors:                   2
##########                         Heavy_Atoms:                  29
##########                          Grid_Score:          -35.455730
##########                     Grid_vdw_energy:          -35.242683
##########                      Grid_es_energy:           -0.213047
##########           Internal_energy_repulsive:           21.895189

@<TRIPOS>MOLECULE
ZINC000482910431
 49 51 1 0 0
SMALL
USER_CHARGES


@<TRIPOS>ATOM
      1 C1          1.8006    2.4913   46.5008 C.3     1  ZINC000482910431   -0.1500
      2 C2          1.4304    1.4976   47.6037 C.3     1  ZINC000482910431    0.0800
      3 C3          1.8357    0.0858   47.1752 C.3     1  ZINC000482910431   -0.1400
      4 C4          2.1370    1.8557   48.8443 C.1     1  ZINC000482910431    0.2100
      5 N5          2.6823    2.1320   49.8018 N.1     1  ZINC000482910431   -0.4300
      6 C6         -0.0569    1.5427   47.8419 C.ar    1  ZINC000482910431   -0.1000
      7 C7         -0.5728    2.3598   48.8310 C.ar    1  ZINC000482910431   -0.0900
      8 C8         -1.9355    2.4038   49.0516 C.ar    1  ZINC000482910431   -0.1200
      9 C9         -2.7879    1.6263   48.2788 C.ar    1  ZINC000482910431    0.1700
     10 N10        -4.1692    1.6689   48.4995 N.am    1  ZINC000482910431   -0.6800
     11 C11        -4.6624    1.4327   49.7312 C.2     1  ZINC000482910431    0.7100
     12 O12        -3.9073    1.1825   50.6508 O.2     1  ZINC000482910431   -0.5500
     13 N13        -5.9927    1.4737   49.9438 N.am    1  ZINC000482910431   -0.7300
     14 C14        -6.5290    1.2152   51.2824 C.3     1  ZINC000482910431    0.1400
     15 H15        -5.7274    0.9355   51.9659 H       1  ZINC000482910431    0.1400
     16 C16        -7.2835    2.4567   51.8121 C.3     1  ZINC000482910431   -0.1400
     17 C17        -8.4535    1.8082   52.5848 C.3     1  ZINC000482910431    0.0900
     18 N18        -8.6529    0.4940   51.9626 N.am    1  ZINC000482910431   -0.5600
     19 C19        -9.8067   -0.2840   52.1129 C.ar    1  ZINC000482910431    0.2000
     20 C20       -11.0531    0.3251   52.1718 C.ar    1  ZINC000482910431   -0.1600
     21 C21       -12.1912   -0.4439   52.3202 C.ar    1  ZINC000482910431   -0.0500
     22 C22       -12.0909   -1.8204   52.4103 C.ar    1  ZINC000482910431   -0.1000
     23 Cl23      -13.5232   -2.7835   52.5967 Cl      1  ZINC000482910431   -0.0500
     24 C24       -10.8483   -2.4321   52.3513 C.ar    1  ZINC000482910431    0.1400
     25 F25       -10.7526   -3.7769   52.4389 F       1  ZINC000482910431   -0.1200
     26 C26        -9.7070   -1.6664   52.1975 C.ar    1  ZINC000482910431   -0.1900
     27 C27        -7.5828    0.1311   51.2302 C.2     1  ZINC000482910431    0.5000
     28 O28        -7.4818   -0.9102   50.6165 O.2     1  ZINC000482910431   -0.4800
     29 C29        -2.2667    0.8067   47.2863 C.ar    1  ZINC000482910431   -0.1400
     30 C30        -0.9036    0.7713   47.0672 C.ar    1  ZINC000482910431   -0.0900
     31 H31         1.2773    2.2261   45.5822 H       1  ZINC000482910431    0.0800
     32 H32         1.5119    3.4971   46.8061 H       1  ZINC000482910431    0.0700
     33 H33         2.8765    2.4587   46.3285 H       1  ZINC000482910431    0.0700
     34 H34         2.9115    0.0532   47.0029 H       1  ZINC000482910431    0.0700
     35 H35         1.5719   -0.6222   47.9609 H       1  ZINC000482910431    0.0700
     36 H36         1.3124   -0.1794   46.2566 H       1  ZINC000482910431    0.0800
     37 H37         0.0907    2.9641   49.4320 H       1  ZINC000482910431    0.1400
     38 H38        -2.3377    3.0419   49.8246 H       1  ZINC000482910431    0.1400
     39 H39        -4.7715    1.8684   47.7658 H       1  ZINC000482910431    0.4100
     40 H40        -6.5950    1.6744   49.2104 H       1  ZINC000482910431    0.4000
     41 H41        -6.6514    3.0416   52.4802 H       1  ZINC000482910431    0.1100
     42 H42        -7.6516    3.0698   50.9895 H       1  ZINC000482910431    0.1000
     43 H43        -8.1923    1.6917   53.6366 H       1  ZINC000482910431    0.0900
     44 H44        -9.3540    2.4139   52.4837 H       1  ZINC000482910431    0.1000
     45 H45       -11.1328    1.3999   52.1021 H       1  ZINC000482910431    0.1700
     46 H46       -13.1604    0.0304   52.3665 H       1  ZINC000482910431    0.1500
     47 H47        -8.7386   -2.1424   52.1511 H       1  ZINC000482910431    0.1500
     48 H48        -2.9271    0.2008   46.6836 H       1  ZINC000482910431    0.1300
     49 H49        -0.4977    0.1343   46.2951 H       1  ZINC000482910431    0.1300
@<TRIPOS>BOND
     1     1     2    1
     2     1    31    1
     3     1    32    1
     4     1    33    1
     5     2     3    1
     6     2     4    1
     7     2     6    1
     8     3    34    1
     9     3    35    1
    10     3    36    1
    11     4     5    3
    12     6    30   ar
    13     6     7   ar
    14     7     8   ar
    15     7    37    1
    16     8     9   ar
    17     8    38    1
    18     9    10    1
    19     9    29   ar
    20    10    11   am
    21    10    39    1
    22    11    12    2
    23    11    13   am
    24    13    14    1
    25    13    40    1
    26    14    15    1
    27    14    27    1
    28    14    16    1
    29    16    17    1
    30    16    41    1
    31    16    42    1
    32    17    18    1
    33    17    43    1
    34    17    44    1
    35    18    19    1
    36    18    27   am
    37    19    26   ar
    38    19    20   ar
    39    20    21   ar
    40    20    45    1
    41    21    22   ar
    42    21    46    1
    43    22    23    1
    44    22    24   ar
    45    24    25    1
    46    24    26   ar
    47    26    47    1
    48    27    28    2
    49    29    30   ar
    50    29    48    1
    51    30    49    1
@<TRIPOS>SUBSTRUCTURE
     1 ZINC000482910431        1 TEMP              0 ****  ****    0 ROOT


##########                                Name:    ZINC000151820600
##########                DOCK_Rotatable_Bonds:                  10
##########                         Heavy_Atoms:                  25
##########                    Molecular_Weight:             388.915
##########                DOCK_Rotatable_Bonds:                  10
##########                       Formal_Charge:           0.0499998
##########                     HBond_Acceptors:                   8
##########                        HBond_Donors:                   2
##########                         Heavy_Atoms:                  25
##########                          Grid_Score:          -35.445324
##########                     Grid_vdw_energy:          -33.497719
##########                      Grid_es_energy:           -1.947607
##########           Internal_energy_repulsive:           33.222191

@<TRIPOS>MOLECULE
ZINC000151820600
 50 50 1 0 0
SMALL
USER_CHARGES


@<TRIPOS>ATOM
      1 C1         -5.8961    0.9692   50.6050 C.3     1  ZINC000151820600   -0.4900
      2 S2         -7.1880    0.2291   51.6412 S.o     1  ZINC000151820600    1.2500
      3 O3         -7.8105   -0.8349   50.9342 O.2     1  ZINC000151820600   -0.8500
      4 C4         -8.3704    1.5883   51.8522 C.3     1  ZINC000151820600   -0.4500
      5 C5         -9.5401    1.1169   52.7184 C.3     1  ZINC000151820600   -0.1100
      6 C6         -9.0285    0.7591   54.1154 C.3     1  ZINC000151820600    0.1200
      7 N7        -10.0948    0.0972   54.8712 N.am    1  ZINC000151820600   -0.7200
      8 C8         -9.9369   -0.1457   56.1874 C.2     1  ZINC000151820600    0.5200
      9 O9         -8.9114    0.1824   56.7459 O.2     1  ZINC000151820600   -0.5200
     10 C10       -11.0344   -0.8249   56.9653 C.3     1  ZINC000151820600    0.1900
     11 H11       -11.9265   -0.1987   56.9572 H       1  ZINC000151820600    0.1300
     12 N12       -11.3404   -2.1188   56.3498 N.am    1  ZINC000151820600   -0.6900
     13 C13       -12.5928   -2.6133   56.4079 C.2     1  ZINC000151820600    0.6600
     14 O14       -13.4679   -1.9867   56.9720 O.2     1  ZINC000151820600   -0.5600
     15 O15       -12.8744   -3.8015   55.8410 O.3     1  ZINC000151820600   -0.3600
     16 C16       -14.1326   -4.4258   56.2090 C.3     1  ZINC000151820600    0.1400
     17 C17       -15.2939   -3.5991   55.6531 C.3     1  ZINC000151820600   -0.1800
     18 C18       -14.1894   -5.8401   55.6279 C.3     1  ZINC000151820600   -0.1400
     19 C19       -14.2405   -4.4961   57.7335 C.3     1  ZINC000151820600   -0.1800
     20 C20       -10.5837   -1.0391   58.3873 C.ar    1  ZINC000151820600   -0.1000
     21 C21        -9.7675   -2.1100   58.6996 C.ar    1  ZINC000151820600   -0.0900
     22 C22        -9.3533   -2.3068   60.0039 C.ar    1  ZINC000151820600   -0.1000
     23 C23        -9.7555   -1.4332   60.9963 C.ar    1  ZINC000151820600   -0.1000
     24 C24       -10.5727   -0.3610   60.6842 C.ar    1  ZINC000151820600   -0.0300
     25 Cl25      -11.0781    0.7372   61.9302 Cl      1  ZINC000151820600   -0.0600
     26 C26       -10.9822   -0.1614   59.3781 C.ar    1  ZINC000151820600   -0.0900
     27 H27        -6.3309    1.2966   49.6606 H       1  ZINC000151820600    0.0800
     28 H28        -5.4623    1.8255   51.1215 H       1  ZINC000151820600    0.1100
     29 H29        -5.1187    0.2304   50.4103 H       1  ZINC000151820600    0.1100
     30 H30        -7.8747    2.4291   52.3375 H       1  ZINC000151820600    0.1200
     31 H31        -8.7434    1.9001   50.8767 H       1  ZINC000151820600    0.0900
     32 H32       -10.2796    1.9139   52.7955 H       1  ZINC000151820600    0.0800
     33 H33        -9.9984    0.2387   52.2635 H       1  ZINC000151820600    0.0900
     34 H34        -8.1742    0.0879   54.0285 H       1  ZINC000151820600    0.0800
     35 H35        -8.7252    1.6680   54.6350 H       1  ZINC000151820600    0.0700
     36 H36       -10.9144   -0.1663   54.4243 H       1  ZINC000151820600    0.4000
     37 H37       -10.6416   -2.6195   55.9006 H       1  ZINC000151820600    0.4200
     38 H38       -15.2170   -3.5491   54.5669 H       1  ZINC000151820600    0.0600
     39 H39       -16.2384   -4.0678   55.9293 H       1  ZINC000151820600    0.0700
     40 H40       -15.2535   -2.5916   56.0671 H       1  ZINC000151820600    0.0900
     41 H41       -13.3621   -6.4291   56.0238 H       1  ZINC000151820600    0.0700
     42 H42       -15.1339   -6.3087   55.9041 H       1  ZINC000151820600    0.0800
     43 H43       -14.1125   -5.7900   54.5417 H       1  ZINC000151820600    0.0700
     44 H44       -14.2000   -3.4886   58.1474 H       1  ZINC000151820600    0.0900
     45 H45       -15.1850   -4.9648   58.0096 H       1  ZINC000151820600    0.0700
     46 H46       -13.4131   -5.0851   58.1295 H       1  ZINC000151820600    0.0600
     47 H47        -9.4534   -2.7933   57.9245 H       1  ZINC000151820600    0.1300
     48 H48        -8.7154   -3.1437   60.2474 H       1  ZINC000151820600    0.1400
     49 H49        -9.4325   -1.5875   62.0152 H       1  ZINC000151820600    0.1400
     50 H50       -11.6200    0.6753   59.1339 H       1  ZINC000151820600    0.1400
@<TRIPOS>BOND
     1     1     2    1
     2     1    27    1
     3     1    28    1
     4     1    29    1
     5     2     3    2
     6     2     4    1
     7     4     5    1
     8     4    30    1
     9     4    31    1
    10     5     6    1
    11     5    32    1
    12     5    33    1
    13     6     7    1
    14     6    34    1
    15     6    35    1
    16     7     8   am
    17     7    36    1
    18     8     9    2
    19     8    10    1
    20    10    11    1
    21    10    12    1
    22    10    20    1
    23    12    13   am
    24    12    37    1
    25    13    14    2
    26    13    15    1
    27    15    16    1
    28    16    17    1
    29    16    18    1
    30    16    19    1
    31    17    38    1
    32    17    39    1
    33    17    40    1
    34    18    41    1
    35    18    42    1
    36    18    43    1
    37    19    44    1
    38    19    45    1
    39    19    46    1
    40    20    26   ar
    41    20    21   ar
    42    21    22   ar
    43    21    47    1
    44    22    23   ar
    45    22    48    1
    46    23    24   ar
    47    23    49    1
    48    24    25    1
    49    24    26   ar
    50    26    50    1
@<TRIPOS>SUBSTRUCTURE
     1 ZINC000151820600        1 TEMP              0 ****  ****    0 ROOT


##########                                Name:    ZINC000762020937
##########                DOCK_Rotatable_Bonds:                  10
##########                         Heavy_Atoms:                  28
##########                    Molecular_Weight:             391.467
##########                DOCK_Rotatable_Bonds:                  10
##########                       Formal_Charge:         -1.8999e-07
##########                     HBond_Acceptors:                   8
##########                        HBond_Donors:                   1
##########                         Heavy_Atoms:                  28
##########                          Grid_Score:          -35.440010
##########                     Grid_vdw_energy:          -34.662949
##########                      Grid_es_energy:           -0.777060
##########           Internal_energy_repulsive:           41.517086

@<TRIPOS>MOLECULE
ZINC000762020937
 57 58 1 0 0
SMALL
USER_CHARGES


@<TRIPOS>ATOM
      1 C1        -13.2041   -2.5073   54.3636 C.3     1  ZINC000762020937    0.0200
      2 O2        -12.4111   -3.6028   54.8255 O.3     1  ZINC000762020937   -0.3000
      3 C3        -11.7556   -3.4363   56.0052 C.ar    1  ZINC000762020937    0.1100
      4 C4        -11.0838   -2.2531   56.2651 C.ar    1  ZINC000762020937   -0.1700
      5 C5        -10.4181   -2.0853   57.4655 C.ar    1  ZINC000762020937   -0.1000
      6 C6        -10.4208   -3.0962   58.4080 C.ar    1  ZINC000762020937   -0.1000
      7 C7         -9.6933   -2.9082   59.7143 C.3     1  ZINC000762020937    0.0200
      8 C8        -10.4900   -1.9905   60.6054 C.2     1  ZINC000762020937    0.1900
      9 N9        -10.0603   -0.8924   61.1792 N.2     1  ZINC000762020937   -0.4700
     10 C10       -11.1087   -0.4114   61.8708 C.2     1  ZINC000762020937    0.1600
     11 C11       -11.1261    0.8426   62.7065 C.3     1  ZINC000762020937    0.2600
     12 H12       -11.8483    0.7303   63.5153 H       1  ZINC000762020937    0.1200
     13 N13        -9.7936    1.0723   63.2702 N.am    1  ZINC000762020937   -0.7100
     14 C14        -9.5592    0.8155   64.5725 C.2     1  ZINC000762020937    0.6600
     15 O15       -10.4529    0.3921   65.2786 O.2     1  ZINC000762020937   -0.5600
     16 O16        -8.3350    1.0281   65.0908 O.3     1  ZINC000762020937   -0.3600
     17 C17        -8.1839    0.8406   66.5228 C.3     1  ZINC000762020937    0.1400
     18 C18        -8.5125   -0.6092   66.8848 C.3     1  ZINC000762020937   -0.1800
     19 C19        -6.7423    1.1535   66.9288 C.3     1  ZINC000762020937   -0.1400
     20 C20        -9.1376    1.7800   67.2636 C.3     1  ZINC000762020937   -0.1800
     21 C21       -11.5218    2.0334   61.8313 C.3     1  ZINC000762020937   -0.1000
     22 C22       -12.9749    1.8741   61.3800 C.3     1  ZINC000762020937   -0.1400
     23 C23       -11.3761    3.3275   62.6344 C.3     1  ZINC000762020937   -0.1400
     24 N24       -12.1039   -1.2261   61.6858 N.2     1  ZINC000762020937   -0.3700
     25 O25       -11.7709   -2.1369   60.9572 O.3     1  ZINC000762020937    0.0900
     26 C26       -11.0899   -4.2797   58.1550 C.ar    1  ZINC000762020937   -0.1500
     27 C27       -11.7632   -4.4523   56.9567 C.ar    1  ZINC000762020937    0.1000
     28 O28       -12.4216   -5.6154   56.7064 O.3     1  ZINC000762020937   -0.3100
     29 C29       -13.8194   -5.6464   57.0024 C.3     1  ZINC000762020937    0.0200
     30 H30       -13.9768   -2.2826   55.0989 H       1  ZINC000762020937    0.0600
     31 H31       -12.5691   -1.6322   54.2249 H       1  ZINC000762020937    0.0600
     32 H32       -13.6711   -2.7713   53.4148 H       1  ZINC000762020937    0.1000
     33 H33       -11.0795   -1.4618   55.5301 H       1  ZINC000762020937    0.1400
     34 H34        -9.8946   -1.1623   57.6669 H       1  ZINC000762020937    0.1300
     35 H35        -9.5708   -3.8742   60.2042 H       1  ZINC000762020937    0.1200
     36 H36        -8.7134   -2.4700   59.5247 H       1  ZINC000762020937    0.1200
     37 H37        -9.0798    1.4091   62.7063 H       1  ZINC000762020937    0.4100
     38 H38        -7.8331   -1.2784   66.3570 H       1  ZINC000762020937    0.0600
     39 H39        -8.3991   -0.7499   67.9597 H       1  ZINC000762020937    0.0700
     40 H40        -9.5396   -0.8320   66.5956 H       1  ZINC000762020937    0.0900
     41 H41        -6.5081    2.1863   66.6708 H       1  ZINC000762020937    0.0700
     42 H42        -6.6288    1.0126   68.0036 H       1  ZINC000762020937    0.0800
     43 H43        -6.0629    0.4841   66.4010 H       1  ZINC000762020937    0.0700
     44 H44       -10.1646    1.5572   66.9743 H       1  ZINC000762020937    0.0900
     45 H45        -9.0242    1.6393   68.3385 H       1  ZINC000762020937    0.0700
     46 H46        -8.9035    2.8128   67.0058 H       1  ZINC000762020937    0.0600
     47 H47       -10.8721    2.0734   60.9569 H       1  ZINC000762020937    0.0800
     48 H48       -13.6246    1.8342   62.2542 H       1  ZINC000762020937    0.0600
     49 H49       -13.2569    2.7226   60.7564 H       1  ZINC000762020937    0.0600
     50 H50       -13.0787    0.9523   60.8078 H       1  ZINC000762020937    0.0500
     51 H51       -10.3408    3.4409   62.9560 H       1  ZINC000762020937    0.0500
     52 H52       -11.6579    4.1759   62.0109 H       1  ZINC000762020937    0.0600
     53 H53       -12.0257    3.2874   63.5088 H       1  ZINC000762020937    0.0700
     54 H54       -11.0905   -5.0680   58.8932 H       1  ZINC000762020937    0.1400
     55 H55       -14.3325   -4.8865   56.4129 H       1  ZINC000762020937    0.0600
     56 H56       -14.2211   -6.6294   56.7569 H       1  ZINC000762020937    0.1000
     57 H57       -13.9706   -5.4467   58.0632 H       1  ZINC000762020937    0.0600
@<TRIPOS>BOND
     1     1     2    1
     2     1    30    1
     3     1    31    1
     4     1    32    1
     5     2     3    1
     6     3    27   ar
     7     3     4   ar
     8     4     5   ar
     9     4    33    1
    10     5     6   ar
    11     5    34    1
    12     6     7    1
    13     6    26   ar
    14     7     8    1
    15     7    35    1
    16     7    36    1
    17     8    25    1
    18     8     9    2
    19     9    10    1
    20    10    11    1
    21    10    24    2
    22    11    12    1
    23    11    13    1
    24    11    21    1
    25    13    14   am
    26    13    37    1
    27    14    15    2
    28    14    16    1
    29    16    17    1
    30    17    18    1
    31    17    19    1
    32    17    20    1
    33    18    38    1
    34    18    39    1
    35    18    40    1
    36    19    41    1
    37    19    42    1
    38    19    43    1
    39    20    44    1
    40    20    45    1
    41    20    46    1
    42    21    22    1
    43    21    23    1
    44    21    47    1
    45    22    48    1
    46    22    49    1
    47    22    50    1
    48    23    51    1
    49    23    52    1
    50    23    53    1
    51    24    25    1
    52    26    27   ar
    53    26    54    1
    54    27    28    1
    55    28    29    1
    56    29    55    1
    57    29    56    1
    58    29    57    1
@<TRIPOS>SUBSTRUCTURE
     1 ZINC000762020937        1 TEMP              0 ****  ****    0 ROOT


##########                                Name:    ZINC000426805817
##########                DOCK_Rotatable_Bonds:                   6
##########                         Heavy_Atoms:                  26
##########                    Molecular_Weight:             412.286
##########                DOCK_Rotatable_Bonds:                   6
##########                       Formal_Charge:          -0.0100001
##########                     HBond_Acceptors:                   5
##########                        HBond_Donors:                   4
##########                         Heavy_Atoms:                  26
##########                          Grid_Score:          -35.427170
##########                     Grid_vdw_energy:          -27.648323
##########                      Grid_es_energy:           -7.778847
##########           Internal_energy_repulsive:           10.306148

@<TRIPOS>MOLECULE
ZINC000426805817
 44 47 1 0 0
SMALL
USER_CHARGES


@<TRIPOS>ATOM
      1 O1        -13.7095    2.4829   63.9804 O.co2   1  ZINC000426805817   -0.6300
      2 C2        -13.1978    1.3780   64.0426 C.2     1  ZINC000426805817    0.5000
      3 O3        -13.8369    0.4337   64.4745 O.co2   1  ZINC000426805817   -0.6800
      4 C4        -11.7776    1.1781   63.5801 C.3     1  ZINC000426805817   -0.0500
      5 H5        -11.2815    0.4579   64.2308 H       1  ZINC000426805817    0.1300
      6 C6        -11.7784    0.6514   62.1435 C.3     1  ZINC000426805817   -0.0500
      7 C7        -10.7462   -0.4381   62.0074 C.2     1  ZINC000426805817   -0.1900
      8 C8         -9.6565   -0.6060   62.7731 C.2     1  ZINC000426805817    0.0500
      9 N9         -8.9546   -1.7023   62.3516 N.pl3   1  ZINC000426805817   -0.5900
     10 C10        -9.5918   -2.2816   61.2766 C.ar    1  ZINC000426805817    0.1100
     11 C11        -9.3141   -3.3906   60.4848 C.ar    1  ZINC000426805817   -0.1200
     12 C12       -10.1628   -3.7290   59.4538 C.ar    1  ZINC000426805817   -0.0700
     13 C13       -11.2984   -2.9728   59.1940 C.ar    1  ZINC000426805817   -0.1100
     14 Br14      -12.4470   -3.4591   57.7727 Br      1  ZINC000426805817   -0.0400
     15 C15       -11.5927   -1.8710   59.9660 C.ar    1  ZINC000426805817   -0.0400
     16 C16       -10.7452   -1.5187   61.0181 C.ar    1  ZINC000426805817   -0.1000
     17 N17       -11.0609    2.4593   63.6315 N.4     1  ZINC000426805817   -0.4800
     18 H18       -10.1182    2.3311   63.2954 H       1  ZINC000426805817    0.4000
     19 H19       -11.5360    3.1341   63.0511 H       1  ZINC000426805817    0.4200
     20 C20       -11.0247    2.9449   65.0175 C.3     1  ZINC000426805817    0.0400
     21 C21       -10.5438    1.8413   65.9241 C.ar    1  ZINC000426805817   -0.1600
     22 C22        -9.2126    1.4399   65.8891 C.ar    1  ZINC000426805817    0.1100
     23 N23        -8.1194    1.8444   65.1563 N.pl3   1  ZINC000426805817   -0.5900
     24 C24        -7.0217    1.1101   65.5145 C.2     1  ZINC000426805817    0.0600
     25 C25        -7.3539    0.2256   66.4680 C.2     1  ZINC000426805817   -0.2000
     26 C26        -8.7811    0.4082   66.7431 C.ar    1  ZINC000426805817   -0.1100
     27 C27        -9.6873   -0.2005   67.6131 C.ar    1  ZINC000426805817   -0.0400
     28 C28       -10.9908    0.2095   67.6308 C.ar    1  ZINC000426805817   -0.1500
     29 C29       -11.4202    1.2304   66.7943 C.ar    1  ZINC000426805817   -0.0700
     30 H30       -12.7634    0.2509   61.9039 H       1  ZINC000426805817    0.1200
     31 H31       -11.5404    1.4650   61.4583 H       1  ZINC000426805817    0.0900
     32 H32        -9.3755    0.0301   63.5992 H       1  ZINC000426805817    0.1700
     33 H33        -8.1308   -2.0236   62.7506 H       1  ZINC000426805817    0.4200
     34 H34        -8.4337   -3.9856   60.6776 H       1  ZINC000426805817    0.1300
     35 H35        -9.9428   -4.5909   58.8414 H       1  ZINC000426805817    0.1400
     36 H36       -12.4765   -1.2850   59.7613 H       1  ZINC000426805817    0.1400
     37 H37       -10.3453    3.7944   65.0873 H       1  ZINC000426805817    0.1500
     38 H38       -12.0251    3.2540   65.3205 H       1  ZINC000426805817    0.1300
     39 H39        -8.1264    2.5451   64.4855 H       1  ZINC000426805817    0.4300
     40 H40        -6.0343    1.2252   65.0925 H       1  ZINC000426805817    0.1800
     41 H41        -6.6942   -0.4859   66.9422 H       1  ZINC000426805817    0.1500
     42 H42        -9.3595   -0.9930   68.2695 H       1  ZINC000426805817    0.1300
     43 H43       -11.6915   -0.2618   68.3041 H       1  ZINC000426805817    0.1300
     44 H44       -12.4536    1.5433   66.8197 H       1  ZINC000426805817    0.1300
@<TRIPOS>BOND
     1     1     2   ar
     2     2     3   ar
     3     2     4    1
     4     4     5    1
     5     4     6    1
     6     4    17    1
     7     6     7    1
     8     6    30    1
     9     6    31    1
    10     7    16    1
    11     7     8    2
    12     8     9    1
    13     8    32    1
    14     9    10    1
    15     9    33    1
    16    10    16   ar
    17    10    11   ar
    18    11    12   ar
    19    11    34    1
    20    12    13   ar
    21    12    35    1
    22    13    14    1
    23    13    15   ar
    24    15    16   ar
    25    15    36    1
    26    17    18    1
    27    17    19    1
    28    17    20    1
    29    20    21    1
    30    20    37    1
    31    20    38    1
    32    21    29   ar
    33    21    22   ar
    34    22    26   ar
    35    22    23    1
    36    23    24    1
    37    23    39    1
    38    24    25    2
    39    24    40    1
    40    25    26    1
    41    25    41    1
    42    26    27   ar
    43    27    28   ar
    44    27    42    1
    45    28    29   ar
    46    28    43    1
    47    29    44    1
@<TRIPOS>SUBSTRUCTURE
     1 ZINC000426805817        1 TEMP              0 ****  ****    0 ROOT


##########                                Name:    ZINC001326371752
##########                DOCK_Rotatable_Bonds:                   5
##########                         Heavy_Atoms:                  25
##########                    Molecular_Weight:             360.397
##########                DOCK_Rotatable_Bonds:                   5
##########                       Formal_Charge:           0.0199999
##########                     HBond_Acceptors:                  10
##########                        HBond_Donors:                   0
##########                         Heavy_Atoms:                  25
##########                          Grid_Score:          -35.417091
##########                     Grid_vdw_energy:          -33.572815
##########                      Grid_es_energy:           -1.844275
##########           Internal_energy_repulsive:           10.677211

@<TRIPOS>MOLECULE
ZINC001326371752
 41 44 1 0 0
SMALL
USER_CHARGES


@<TRIPOS>ATOM
      1 C1        -14.6407    0.0877   48.0439 C.3     1  ZINC001326371752    0.0300
      2 O2        -15.4125   -0.9011   48.7286 O.3     1  ZINC001326371752   -0.3800
      3 C3        -14.6398   -1.7665   49.5629 C.3     1  ZINC001326371752    0.0500
      4 C4        -13.9762   -0.9472   50.6717 C.3     1  ZINC001326371752    0.1200
      5 N5        -13.1761   -1.8329   51.5211 N.pl3   1  ZINC001326371752   -0.2800
      6 N6        -11.9160   -2.0785   51.3863 N.2     1  ZINC001326371752   -0.0800
      7 N7        -11.5213   -2.9025   52.2974 N.2     1  ZINC001326371752   -0.2500
      8 C8        -12.5596   -3.2148   53.0643 C.2     1  ZINC001326371752   -0.0400
      9 C9        -13.6247   -2.5282   52.5815 C.2     1  ZINC001326371752    0.0000
     10 C10       -15.0122   -2.5804   53.1620 C.3     1  ZINC001326371752   -0.0600
     11 C11       -15.1279   -3.8245   54.0528 C.3     1  ZINC001326371752    0.1200
     12 N12       -13.9314   -3.9253   54.9014 N.am    1  ZINC001326371752   -0.6100
     13 C13       -14.0259   -3.8226   56.2419 C.2     1  ZINC001326371752    0.6100
     14 O14       -15.1109   -3.6442   56.7635 O.2     1  ZINC001326371752   -0.5100
     15 C15       -12.8205   -3.9258   57.0725 C.2     1  ZINC001326371752   -0.3400
     16 C16       -12.2764   -5.1765   57.3868 C.2     1  ZINC001326371752    0.2400
     17 N17       -11.1918   -5.2316   58.1361 N.2     1  ZINC001326371752   -0.5100
     18 C18       -10.6034   -4.1368   58.5995 C.2     1  ZINC001326371752    0.2900
     19 S19        -9.2009   -3.9485   59.5814 S.3     1  ZINC001326371752    0.2500
     20 C20        -9.2794   -2.1799   59.6163 C.2     1  ZINC001326371752   -0.2100
     21 C21       -10.3413   -1.8607   58.8960 C.2     1  ZINC001326371752    0.0500
     22 N22       -11.0677   -2.8862   58.3405 N.am    1  ZINC001326371752   -0.4600
     23 C23       -12.1849   -2.7650   57.5647 C.2     1  ZINC001326371752    0.5500
     24 O24       -12.6330   -1.6623   57.3026 O.2     1  ZINC001326371752   -0.5000
     25 C25       -12.6244   -4.1383   54.2542 C.3     1  ZINC001326371752    0.2000
     26 H26       -15.2999    0.7037   47.4323 H       1  ZINC001326371752    0.0900
     27 H27       -14.1277    0.7164   48.7718 H       1  ZINC001326371752    0.0500
     28 H28       -13.9059   -0.4028   47.4056 H       1  ZINC001326371752    0.0500
     29 H29       -15.2909   -2.5193   50.0075 H       1  ZINC001326371752    0.0600
     30 H30       -13.8721   -2.2575   48.9649 H       1  ZINC001326371752    0.0600
     31 H31       -13.3308   -0.1897   50.2270 H       1  ZINC001326371752    0.1200
     32 H32       -14.7441   -0.4621   51.2742 H       1  ZINC001326371752    0.1200
     33 H33       -15.1929   -1.6860   53.7582 H       1  ZINC001326371752    0.0900
     34 H34       -15.7436   -2.6388   52.3559 H       1  ZINC001326371752    0.1000
     35 H35       -16.0143   -3.7409   54.6816 H       1  ZINC001326371752    0.1100
     36 H36       -15.2067   -4.7139   53.4275 H       1  ZINC001326371752    0.0800
     37 H37       -12.7374   -6.0824   57.0218 H       1  ZINC001326371752    0.1900
     38 H38        -8.6033   -1.5048   60.1198 H       1  ZINC001326371752    0.2200
     39 H39       -10.6277   -0.8298   58.7494 H       1  ZINC001326371752    0.2000
     40 H40       -12.5397   -5.1724   53.9201 H       1  ZINC001326371752    0.1000
     41 H41       -11.8215   -3.9063   54.9539 H       1  ZINC001326371752    0.1000
@<TRIPOS>BOND
     1     1     2    1
     2     1    26    1
     3     1    27    1
     4     1    28    1
     5     2     3    1
     6     3     4    1
     7     3    29    1
     8     3    30    1
     9     4     5    1
    10     4    31    1
    11     4    32    1
    12     5     9    1
    13     5     6    1
    14     6     7    2
    15     7     8    1
    16     8    25    1
    17     8     9    2
    18     9    10    1
    19    10    11    1
    20    10    33    1
    21    10    34    1
    22    11    12    1
    23    11    35    1
    24    11    36    1
    25    12    13   am
    26    12    25    1
    27    13    14    2
    28    13    15    1
    29    15    23    1
    30    15    16    2
    31    16    17    1
    32    16    37    1
    33    17    18    2
    34    18    22    1
    35    18    19    1
    36    19    20    1
    37    20    21    2
    38    20    38    1
    39    21    22    1
    40    21    39    1
    41    22    23   am
    42    23    24    2
    43    25    40    1
    44    25    41    1
@<TRIPOS>SUBSTRUCTURE
     1 ZINC001326371752        1 TEMP              0 ****  ****    0 ROOT


##########                                Name:    ZINC001570985666
##########                DOCK_Rotatable_Bonds:                   7
##########                         Heavy_Atoms:                  26
##########                    Molecular_Weight:             357.415
##########                DOCK_Rotatable_Bonds:                   7
##########                       Formal_Charge:          -0.0100001
##########                     HBond_Acceptors:                   9
##########                        HBond_Donors:                   3
##########                         Heavy_Atoms:                  26
##########                          Grid_Score:          -35.354965
##########                     Grid_vdw_energy:          -34.635155
##########                      Grid_es_energy:           -0.719811
##########           Internal_energy_repulsive:           12.487540

@<TRIPOS>MOLECULE
ZINC001570985666
 49 52 1 0 0
SMALL
USER_CHARGES


@<TRIPOS>ATOM
      1 C1        -11.3370   -3.5053   53.6329 C.3     1  ZINC001570985666   -0.1600
      2 C2        -12.1021   -2.3707   54.3173 C.3     1  ZINC001570985666    0.1300
      3 H3        -11.4038   -1.6083   54.6623 H       1  ZINC001570985666    0.0800
      4 C4        -12.9059   -2.9257   55.5121 C.3     1  ZINC001570985666    0.1400
      5 H5        -13.0995   -3.9908   55.3853 H       1  ZINC001570985666    0.1100
      6 N6        -12.2010   -2.6754   56.7718 N.am    1  ZINC001570985666   -0.7200
      7 C7        -11.5254   -3.6730   57.3756 C.2     1  ZINC001570985666    0.6000
      8 O8        -11.4994   -4.7806   56.8740 O.2     1  ZINC001570985666   -0.5300
      9 C9        -10.8181   -3.4218   58.6432 C.2     1  ZINC001570985666   -0.2300
     10 C10        -9.9845   -4.2974   59.3050 C.2     1  ZINC001570985666    0.0700
     11 N11        -9.5371   -3.6913   60.4227 N.pl3   1  ZINC001570985666   -0.5200
     12 C12       -10.0703   -2.4282   60.4974 C.2     1  ZINC001570985666    0.0600
     13 C13        -9.8208   -1.4465   61.5767 C.2     1  ZINC001570985666    0.2500
     14 N14       -10.3557   -0.2454   61.6891 N.2     1  ZINC001570985666   -0.3100
     15 N15        -9.8867    0.2958   62.7606 N.pl3   1  ZINC001570985666   -0.2200
     16 N16        -9.0728   -0.5223   63.3307 N.2     1  ZINC001570985666   -0.0400
     17 N17        -9.0113   -1.6064   62.6347 N.2     1  ZINC001570985666   -0.2600
     18 C18       -10.8603   -2.2299   59.4121 C.2     1  ZINC001570985666   -0.0600
     19 C19       -14.2277   -2.1159   55.4479 C.3     1  ZINC001570985666   -0.1500
     20 C20       -14.4264   -1.9655   53.9189 C.3     1  ZINC001570985666    0.1000
     21 N21       -13.0647   -1.7784   53.3770 N.am    1  ZINC001570985666   -0.6200
     22 C22       -12.7589   -1.1684   52.2147 C.2     1  ZINC001570985666    0.5300
     23 O23       -11.6010   -1.0721   51.8668 O.2     1  ZINC001570985666   -0.5300
     24 C24       -13.8556   -0.6062   51.3474 C.3     1  ZINC001570985666   -0.1300
     25 C25       -14.2874   -1.6592   50.3249 C.3     1  ZINC001570985666   -0.1000
     26 C26       -15.5644   -2.4177   50.7236 C.3     1  ZINC001570985666   -0.1300
     27 C27       -15.9823   -2.3319   49.2461 C.3     1  ZINC001570985666   -0.1400
     28 C28       -15.0919   -1.0819   49.1483 C.3     1  ZINC001570985666   -0.1400
     29 H29       -10.7765   -3.1072   52.7871 H       1  ZINC001570985666    0.0700
     30 H30       -10.6475   -3.9594   54.3444 H       1  ZINC001570985666    0.0700
     31 H31       -12.0422   -4.2577   53.2796 H       1  ZINC001570985666    0.0600
     32 H32       -12.2207   -1.7917   57.1713 H       1  ZINC001570985666    0.4000
     33 H33        -9.7335   -5.2975   58.9836 H       1  ZINC001570985666    0.1800
     34 H34        -8.9339   -4.0855   61.0719 H       1  ZINC001570985666    0.4300
     35 H35       -10.1117    1.1814   63.0864 H       1  ZINC001570985666    0.4800
     36 H36       -11.4207   -1.3361   59.1807 H       1  ZINC001570985666    0.1600
     37 H37       -15.0499   -2.6740   55.8957 H       1  ZINC001570985666    0.0900
     38 H38       -14.1131   -1.1423   55.9246 H       1  ZINC001570985666    0.0800
     39 H39       -14.8802   -2.8659   53.5050 H       1  ZINC001570985666    0.0800
     40 H40       -15.0432   -1.0939   53.7005 H       1  ZINC001570985666    0.0800
     41 H41       -14.7076   -0.3337   51.9701 H       1  ZINC001570985666    0.0900
     42 H42       -13.4890    0.2778   50.8258 H       1  ZINC001570985666    0.0900
     43 H43       -13.4694   -2.3104   50.0167 H       1  ZINC001570985666    0.1000
     44 H44       -15.3786   -3.4357   51.0663 H       1  ZINC001570985666    0.0700
     45 H45       -16.2143   -1.8560   51.3945 H       1  ZINC001570985666    0.0800
     46 H46       -15.6286   -3.1682   48.6430 H       1  ZINC001570985666    0.0800
     47 H47       -17.0429   -2.1247   49.1036 H       1  ZINC001570985666    0.0700
     48 H48       -15.6128   -0.1550   49.3886 H       1  ZINC001570985666    0.0800
     49 H49       -14.5248   -1.0214   48.2195 H       1  ZINC001570985666    0.0700
@<TRIPOS>BOND
     1     1     2    1
     2     1    29    1
     3     1    30    1
     4     1    31    1
     5     2     3    1
     6     2    21    1
     7     2     4    1
     8     4     5    1
     9     4     6    1
    10     4    19    1
    11     6     7   am
    12     6    32    1
    13     7     8    2
    14     7     9    1
    15     9    18    1
    16     9    10    2
    17    10    11    1
    18    10    33    1
    19    11    12    1
    20    11    34    1
    21    12    13    1
    22    12    18    2
    23    13    17    1
    24    13    14    2
    25    14    15    1
    26    15    16    1
    27    15    35    1
    28    16    17    2
    29    18    36    1
    30    19    20    1
    31    19    37    1
    32    19    38    1
    33    20    21    1
    34    20    39    1
    35    20    40    1
    36    21    22   am
    37    22    23    2
    38    22    24    1
    39    24    25    1
    40    24    41    1
    41    24    42    1
    42    25    28    1
    43    25    26    1
    44    25    43    1
    45    26    27    1
    46    26    44    1
    47    26    45    1
    48    27    28    1
    49    27    46    1
    50    27    47    1
    51    28    48    1
    52    28    49    1
@<TRIPOS>SUBSTRUCTURE
     1 ZINC001570985666        1 TEMP              0 ****  ****    0 ROOT


##########                                Name:    ZINC000284209281
##########                DOCK_Rotatable_Bonds:                   8
##########                         Heavy_Atoms:                  26
##########                    Molecular_Weight:             353.424
##########                DOCK_Rotatable_Bonds:                   8
##########                       Formal_Charge:          0.00999954
##########                     HBond_Acceptors:                   7
##########                        HBond_Donors:                   1
##########                         Heavy_Atoms:                  26
##########                          Grid_Score:          -35.352379
##########                     Grid_vdw_energy:          -35.679230
##########                      Grid_es_energy:            0.326850
##########           Internal_energy_repulsive:           12.580170

@<TRIPOS>MOLECULE
ZINC000284209281
 49 51 1 0 0
SMALL
USER_CHARGES


@<TRIPOS>ATOM
      1 O1        -10.5747    0.9187   61.7715 O.2     1  <0>        -0.5100
      2 C2        -10.5750   -0.0789   62.4625 C.2     1  <0>         0.5100
      3 N3        -11.1934   -0.0690   63.6600 N.am    1  <0>        -0.7000
      4 C4        -11.8598    1.1479   64.1302 C.3     1  <0>         0.1200
      5 C5        -10.8189    2.1084   64.7090 C.3     1  <0>        -0.1000
      6 C6         -9.9985    1.3919   65.7503 C.ar    1  <0>        -0.0400
      7 C7        -10.3904    1.3833   67.0803 C.ar    1  <0>        -0.1700
      8 C8         -9.6126    0.7158   68.0073 C.ar    1  <0>         0.1000
      9 N9         -8.5101    0.0929   67.6393 N.ar    1  <0>        -0.4900
     10 C10        -8.1070    0.0800   66.3838 C.ar    1  <0>         0.1000
     11 C11        -8.8368    0.7207   65.4005 C.ar    1  <0>        -0.1700
     12 C12        -9.8951   -1.3203   61.9828 C.2     1  <0>         0.5100
     13 O13        -8.8264   -1.6480   62.4550 O.2     1  <0>        -0.5200
     14 N14       -10.4689   -2.0759   61.0255 N.am    1  <0>        -0.5800
     15 C15       -11.7608   -1.6938   60.4354 C.3     1  <0>         0.0800
     16 C16       -11.6216   -1.7063   58.9093 C.3     1  <0>         0.0400
     17 N17       -11.1039   -3.0119   58.4788 N.3     1  <0>        -0.5300
     18 C18       -11.1176   -3.1267   57.0143 C.3     1  <0>         0.1000
     19 C19       -12.2723   -3.9968   56.5895 C.ar    1  <0>         0.1300
     20 C20       -12.4994   -4.2218   55.2450 C.ar    1  <0>        -0.1500
     21 C21       -13.5643   -5.0244   54.8647 C.ar    1  <0>        -0.0700
     22 C22       -14.3641   -5.5727   55.8554 C.ar    1  <0>        -0.1700
     23 C23       -14.0756   -5.3031   57.1801 C.ar    1  <0>         0.1000
     24 N24       -13.0512   -4.5392   57.5051 N.ar    1  <0>        -0.4800
     25 C25        -9.7571   -3.2537   59.0132 C.3     1  <0>         0.0400
     26 C26        -9.8170   -3.3013   60.5391 C.3     1  <0>         0.1100
     27 H27       -11.1971   -0.8677   64.2104 H       1  <0>         0.4100
     28 H28       -12.3722    1.6271   63.2959 H       1  <0>         0.0800
     29 H29       -12.5850    0.8898   64.9020 H       1  <0>         0.0800
     30 H30       -10.1656    2.4602   63.9106 H       1  <0>         0.0900
     31 H31       -11.3242    2.9590   65.1665 H       1  <0>         0.0900
     32 H32       -11.2919    1.8922   67.3881 H       1  <0>         0.1400
     33 H33        -9.9110    0.7043   69.0452 H       1  <0>         0.1600
     34 H34        -7.1982   -0.4407   66.1204 H       1  <0>         0.1600
     35 H35        -8.5017    0.7063   64.3739 H       1  <0>         0.1400
     36 H36       -12.5273   -2.4068   60.7390 H       1  <0>         0.0800
     37 H37       -12.0345   -0.6931   60.7699 H       1  <0>         0.1400
     38 H38       -12.5965   -1.5334   58.4537 H       1  <0>         0.0900
     39 H39       -10.9310   -0.9214   58.6006 H       1  <0>         0.0400
     40 H40       -11.2275   -2.1360   56.5732 H       1  <0>         0.0900
     41 H41       -10.1825   -3.5732   56.6761 H       1  <0>         0.0600
     42 H42       -11.8558   -3.7780   54.5000 H       1  <0>         0.1400
     43 H43       -13.7661   -5.2175   53.8214 H       1  <0>         0.1400
     44 H44       -15.2023   -6.2022   55.5956 H       1  <0>         0.1400
     45 H45       -14.6940   -5.7261   57.9579 H       1  <0>         0.1600
     46 H46        -9.3798   -4.2029   58.6329 H       1  <0>         0.1000
     47 H47        -9.0924   -2.4473   58.7030 H       1  <0>         0.0400
     48 H48        -8.8067   -3.3656   60.9433 H       1  <0>         0.1000
     49 H49       -10.3970   -4.1680   60.8559 H       1  <0>         0.0800
@<TRIPOS>BOND
     1     1     2    2
     2     2     3   am
     3     2    12    1
     4     3     4    1
     5     3    27    1
     6     4     5    1
     7     4    28    1
     8     4    29    1
     9     5     6    1
    10     5    30    1
    11     5    31    1
    12     6    11   ar
    13     6     7   ar
    14     7     8   ar
    15     7    32    1
    16     8     9   ar
    17     8    33    1
    18     9    10   ar
    19    10    11   ar
    20    10    34    1
    21    11    35    1
    22    12    13    2
    23    12    14   am
    24    14    26    1
    25    14    15    1
    26    15    16    1
    27    15    36    1
    28    15    37    1
    29    16    17    1
    30    16    38    1
    31    16    39    1
    32    17    18    1
    33    17    25    1
    34    18    19    1
    35    18    40    1
    36    18    41    1
    37    19    24   ar
    38    19    20   ar
    39    20    21   ar
    40    20    42    1
    41    21    22   ar
    42    21    43    1
    43    22    23   ar
    44    22    44    1
    45    23    24   ar
    46    23    45    1
    47    25    26    1
    48    25    46    1
    49    25    47    1
    50    26    48    1
    51    26    49    1
@<TRIPOS>SUBSTRUCTURE
     1 <0>         1 TEMP              0 ****  ****    0 ROOT


##########                                Name:    ZINC001271977984
##########                DOCK_Rotatable_Bonds:                   7
##########                         Heavy_Atoms:                  24
##########                    Molecular_Weight:             328.371
##########                DOCK_Rotatable_Bonds:                   7
##########                       Formal_Charge:           0.0200001
##########                     HBond_Acceptors:                   7
##########                        HBond_Donors:                   0
##########                         Heavy_Atoms:                  24
##########                          Grid_Score:          -35.345200
##########                     Grid_vdw_energy:          -34.001514
##########                      Grid_es_energy:           -1.343686
##########           Internal_energy_repulsive:           25.772415

@<TRIPOS>MOLECULE
ZINC001271977984
 44 46 1 0 0
SMALL
USER_CHARGES


@<TRIPOS>ATOM
      1 C1        -14.3904   -6.0466   56.6256 C.3     1  ZINC001271977984   -0.1800
      2 C2        -14.1487   -4.5559   56.3794 C.3     1  ZINC001271977984    0.1700
      3 H3        -15.0174   -3.9874   56.7115 H       1  ZINC001271977984    0.1100
      4 C4        -12.9324   -4.1103   57.1495 C.2     1  ZINC001271977984    0.2700
      5 N5        -11.9761   -4.8951   57.5458 N.2     1  ZINC001271977984   -0.4700
      6 C6        -11.0465   -4.1540   58.2075 C.ar    1  ZINC001271977984    0.0200
      7 C7         -9.8377   -4.4572   58.8355 C.ar    1  ZINC001271977984   -0.0600
      8 C8         -9.1079   -3.4538   59.4330 C.ar    1  ZINC001271977984   -0.1200
      9 C9         -9.5667   -2.1452   59.4142 C.ar    1  ZINC001271977984   -0.0900
     10 C10       -10.7601   -1.8310   58.7975 C.ar    1  ZINC001271977984   -0.0900
     11 C11       -11.5074   -2.8284   58.1907 C.ar    1  ZINC001271977984    0.0100
     12 O12       -12.6796   -2.8449   57.5188 O.3     1  ZINC001271977984   -0.2100
     13 N13       -13.9318   -4.3254   54.9449 N.3     1  ZINC001271977984   -0.5300
     14 C14       -15.1885   -4.4535   54.1952 C.3     1  ZINC001271977984    0.0000
     15 C15       -13.3100   -3.0154   54.7103 C.3     1  ZINC001271977984    0.0400
     16 C16       -13.1044   -2.8101   53.2082 C.3     1  ZINC001271977984    0.1200
     17 N17       -12.0587   -1.8072   52.9910 N.am    1  ZINC001271977984   -0.6000
     18 C18       -12.3857   -0.3809   53.0621 C.3     1  ZINC001271977984    0.0800
     19 C19       -10.7960   -2.1966   52.7256 C.2     1  ZINC001271977984    0.6000
     20 O20       -10.5247   -3.3806   52.6665 O.2     1  ZINC001271977984   -0.5300
     21 C21        -9.7439   -1.1874   52.5071 C.2     1  ZINC001271977984   -0.0800
     22 C22        -8.6668   -1.3077   51.6841 C.2     1  ZINC001271977984    0.0200
     23 O23        -7.9686   -0.1652   51.7837 O.3     1  ZINC001271977984   -0.2000
     24 C24        -8.6025    0.6394   52.6485 C.2     1  ZINC001271977984    0.1800
     25 N25        -9.6702    0.0419   53.0858 N.2     1  ZINC001271977984   -0.4600
     26 H26       -15.2701   -6.3688   56.0686 H       1  ZINC001271977984    0.0800
     27 H27       -13.5217   -6.6151   56.2935 H       1  ZINC001271977984    0.0800
     28 H28       -14.5515   -6.2177   57.6899 H       1  ZINC001271977984    0.0700
     29 H29        -9.4762   -5.4748   58.8530 H       1  ZINC001271977984    0.1400
     30 H30        -8.1724   -3.6875   59.9195 H       1  ZINC001271977984    0.1400
     31 H31        -8.9858   -1.3666   59.8862 H       1  ZINC001271977984    0.1400
     32 H32       -11.1110   -0.8096   58.7870 H       1  ZINC001271977984    0.1400
     33 H33       -15.9070   -3.7204   54.5622 H       1  ZINC001271977984    0.0300
     34 H34       -14.9993   -4.2781   53.1362 H       1  ZINC001271977984    0.0700
     35 H35       -15.5919   -5.4570   54.3309 H       1  ZINC001271977984    0.1100
     36 H36       -13.9589   -2.2304   55.0989 H       1  ZINC001271977984    0.0500
     37 H37       -12.3462   -2.9744   55.2179 H       1  ZINC001271977984    0.0800
     38 H38       -12.8045   -3.7527   52.7504 H       1  ZINC001271977984    0.0900
     39 H39       -14.0357   -2.4673   52.7575 H       1  ZINC001271977984    0.0900
     40 H40       -12.1676   -0.0076   54.0628 H       1  ZINC001271977984    0.0600
     41 H41       -11.7885    0.1656   52.3323 H       1  ZINC001271977984    0.0900
     42 H42       -13.4444   -0.2395   52.8444 H       1  ZINC001271977984    0.0700
     43 H43        -8.4201   -2.1599   51.0684 H       1  ZINC001271977984    0.2300
     44 H44        -8.2787    1.6293   52.9341 H       1  ZINC001271977984    0.2600
@<TRIPOS>BOND
     1     1     2    1
     2     1    26    1
     3     1    27    1
     4     1    28    1
     5     2     3    1
     6     2     4    1
     7     2    13    1
     8     4    12    1
     9     4     5    2
    10     5     6    1
    11     6    11   ar
    12     6     7   ar
    13     7     8   ar
    14     7    29    1
    15     8     9   ar
    16     8    30    1
    17     9    10   ar
    18     9    31    1
    19    10    11   ar
    20    10    32    1
    21    11    12    1
    22    13    14    1
    23    13    15    1
    24    14    33    1
    25    14    34    1
    26    14    35    1
    27    15    16    1
    28    15    36    1
    29    15    37    1
    30    16    17    1
    31    16    38    1
    32    16    39    1
    33    17    18    1
    34    17    19   am
    35    18    40    1
    36    18    41    1
    37    18    42    1
    38    19    20    2
    39    19    21    1
    40    21    25    1
    41    21    22    2
    42    22    23    1
    43    22    43    1
    44    23    24    1
    45    24    25    2
    46    24    44    1
@<TRIPOS>SUBSTRUCTURE
     1 ZINC001271977984        1 TEMP              0 ****  ****    0 ROOT


##########                                Name:    ZINC000603906271
##########                DOCK_Rotatable_Bonds:                   8
##########                         Heavy_Atoms:                  29
##########                    Molecular_Weight:             391.473
##########                DOCK_Rotatable_Bonds:                   8
##########                       Formal_Charge:           0.0499998
##########                     HBond_Acceptors:                   7
##########                        HBond_Donors:                   3
##########                         Heavy_Atoms:                  29
##########                          Grid_Score:          -35.337494
##########                     Grid_vdw_energy:          -33.379494
##########                      Grid_es_energy:           -1.957999
##########           Internal_energy_repulsive:           19.377037

@<TRIPOS>MOLECULE
ZINC000603906271
 54 56 1 0 0
SMALL
USER_CHARGES


@<TRIPOS>ATOM
      1 C1        -10.4540    2.1319   58.5255 C.3     1  ZINC000603906271   -0.1600
      2 C2         -9.7488    1.5458   57.3008 C.3     1  ZINC000603906271    0.1300
      3 H3        -10.1898    1.9606   56.3943 H       1  ZINC000603906271    0.1200
      4 N4         -8.3240    1.8839   57.3494 N.am    1  ZINC000603906271   -0.7100
      5 C5         -7.7420    2.5020   56.3028 C.2     1  ZINC000603906271    0.5700
      6 O6         -8.3987    2.7776   55.3178 O.2     1  ZINC000603906271   -0.5300
      7 C7         -6.3047    2.8447   56.3526 C.ar    1  ZINC000603906271   -0.1400
      8 C8         -5.6281    3.1999   55.1846 C.ar    1  ZINC000603906271   -0.0800
      9 C9         -4.2870    3.5190   55.2379 C.ar    1  ZINC000603906271   -0.1200
     10 C10        -3.6126    3.4870   56.4457 C.ar    1  ZINC000603906271   -0.0400
     11 C11        -2.1475    3.8362   56.4963 C.3     1  ZINC000603906271   -0.0400
     12 C12        -1.6629    4.2071   55.0933 C.3     1  ZINC000603906271   -0.1400
     13 C13        -1.9386    5.0235   57.4385 C.3     1  ZINC000603906271   -0.1500
     14 C14        -1.3536    2.6328   57.0085 C.3     1  ZINC000603906271   -0.1400
     15 C15        -4.2775    3.1361   57.6072 C.ar    1  ZINC000603906271   -0.1300
     16 C16        -5.6199    2.8200   57.5684 C.ar    1  ZINC000603906271   -0.0500
     17 C17        -9.9098    0.0475   57.2975 C.2     1  ZINC000603906271    0.5100
     18 O18        -9.6640   -0.5867   56.2932 O.2     1  ZINC000603906271   -0.5100
     19 N19       -10.3268   -0.5879   58.4104 N.am    1  ZINC000603906271   -0.6700
     20 C20       -10.4763   -1.9793   58.4073 C.ar    1  ZINC000603906271    0.1300
     21 C21        -9.6057   -2.7733   59.1434 C.ar    1  ZINC000603906271   -0.1200
     22 C22        -9.7503   -4.1479   59.1428 C.ar    1  ZINC000603906271   -0.1000
     23 C23       -10.7600   -4.7395   58.4106 C.ar    1  ZINC000603906271   -0.0900
     24 C24       -11.6376   -3.9506   57.6688 C.ar    1  ZINC000603906271    0.0000
     25 C25       -12.7234   -4.5852   56.8807 C.2     1  ZINC000603906271    0.2700
     26 N26       -12.9355   -4.4167   55.5939 N.2     1  ZINC000603906271   -0.3000
     27 N27       -14.0560   -5.1962   55.2638 N.pl3   1  ZINC000603906271   -0.4800
     28 C28       -14.4529   -5.7960   56.4006 C.2     1  ZINC000603906271    0.2700
     29 N29       -13.6464   -5.4290   57.3612 N.2     1  ZINC000603906271   -0.5300
     30 C30       -11.4971   -2.5658   57.6741 C.ar    1  ZINC000603906271   -0.0800
     31 H31       -10.0131    1.7171   59.4319 H       1  ZINC000603906271    0.0700
     32 H32       -10.3377    3.2157   58.5278 H       1  ZINC000603906271    0.0800
     33 H33       -11.5140    1.8804   58.4892 H       1  ZINC000603906271    0.0700
     34 H34        -7.7997    1.6628   58.1350 H       1  ZINC000603906271    0.4100
     35 H35        -6.1530    3.2246   54.2411 H       1  ZINC000603906271    0.1300
     36 H36        -3.7621    3.7940   54.3349 H       1  ZINC000603906271    0.1300
     37 H37        -2.2284    5.0645   54.7284 H       1  ZINC000603906271    0.0600
     38 H38        -0.6032    4.4598   55.1299 H       1  ZINC000603906271    0.0600
     39 H39        -1.8117    3.3613   54.4221 H       1  ZINC000603906271    0.0600
     40 H40        -2.2838    4.7593   58.4380 H       1  ZINC000603906271    0.0600
     41 H41        -0.8789    5.2762   57.4751 H       1  ZINC000603906271    0.0600
     42 H42        -2.5041    5.8809   57.0735 H       1  ZINC000603906271    0.0600
     43 H43        -1.5026    1.7870   56.3373 H       1  ZINC000603906271    0.0600
     44 H44        -0.2941    2.8855   57.0452 H       1  ZINC000603906271    0.0600
     45 H45        -1.6990    2.3686   58.0081 H       1  ZINC000603906271    0.0600
     46 H46        -3.7455    3.1134   58.5468 H       1  ZINC000603906271    0.1400
     47 H47        -6.1379    2.5467   58.4759 H       1  ZINC000603906271    0.1400
     48 H48       -10.5233   -0.0808   59.2136 H       1  ZINC000603906271    0.4200
     49 H49        -8.8138   -2.3153   59.7174 H       1  ZINC000603906271    0.1300
     50 H50        -9.0710   -4.7610   59.7165 H       1  ZINC000603906271    0.1400
     51 H51       -10.8696   -5.8139   58.4121 H       1  ZINC000603906271    0.1400
     52 H52       -14.4637   -5.2845   54.3881 H       1  ZINC000603906271    0.4400
     53 H53       -15.2915   -6.4691   56.5012 H       1  ZINC000603906271    0.2300
     54 H54       -12.1747   -1.9504   57.1010 H       1  ZINC000603906271    0.1500
@<TRIPOS>BOND
     1     1     2    1
     2     1    31    1
     3     1    32    1
     4     1    33    1
     5     2     3    1
     6     2     4    1
     7     2    17    1
     8     4     5   am
     9     4    34    1
    10     5     6    2
    11     5     7    1
    12     7    16   ar
    13     7     8   ar
    14     8     9   ar
    15     8    35    1
    16     9    10   ar
    17     9    36    1
    18    10    11    1
    19    10    15   ar
    20    11    12    1
    21    11    13    1
    22    11    14    1
    23    12    37    1
    24    12    38    1
    25    12    39    1
    26    13    40    1
    27    13    41    1
    28    13    42    1
    29    14    43    1
    30    14    44    1
    31    14    45    1
    32    15    16   ar
    33    15    46    1
    34    16    47    1
    35    17    18    2
    36    17    19   am
    37    19    20    1
    38    19    48    1
    39    20    30   ar
    40    20    21   ar
    41    21    22   ar
    42    21    49    1
    43    22    23   ar
    44    22    50    1
    45    23    24   ar
    46    23    51    1
    47    24    25    1
    48    24    30   ar
    49    25    29    1
    50    25    26    2
    51    26    27    1
    52    27    28    1
    53    27    52    1
    54    28    29    2
    55    28    53    1
    56    30    54    1
@<TRIPOS>SUBSTRUCTURE
     1 ZINC000603906271        1 TEMP              0 ****  ****    0 ROOT


##########                                Name:    ZINC000279331220
##########                DOCK_Rotatable_Bonds:                   9
##########                         Heavy_Atoms:                  24
##########                    Molecular_Weight:             328.411
##########                DOCK_Rotatable_Bonds:                   9
##########                       Formal_Charge:          -0.0100001
##########                     HBond_Acceptors:                   5
##########                        HBond_Donors:                   0
##########                         Heavy_Atoms:                  24
##########                          Grid_Score:          -35.325104
##########                     Grid_vdw_energy:          -35.709164
##########                      Grid_es_energy:            0.384060
##########           Internal_energy_repulsive:           18.650999

@<TRIPOS>MOLECULE
ZINC000279331220
 48 49 1 0 0
SMALL
USER_CHARGES


@<TRIPOS>ATOM
      1 C1         -9.5669    0.4215   56.2874 C.3     1  ZINC000279331220   -0.1500
      2 C2        -10.2133    1.4576   55.3658 C.3     1  ZINC000279331220    0.0500
      3 O3        -10.6991    0.8103   54.1881 O.3     1  ZINC000279331220   -0.3000
      4 C4         -9.7699    0.3587   53.3037 C.ar    1  ZINC000279331220    0.1000
      5 C5         -8.7337    1.1861   52.9028 C.ar    1  ZINC000279331220   -0.1700
      6 C6         -7.7893    0.7252   52.0038 C.ar    1  ZINC000279331220   -0.1200
      7 C7         -7.8767   -0.5601   51.5032 C.ar    1  ZINC000279331220   -0.1200
      8 C8         -8.9089   -1.3910   51.8990 C.ar    1  ZINC000279331220   -0.1700
      9 C9         -9.8546   -0.9376   52.8040 C.ar    1  ZINC000279331220    0.1000
     10 O10       -10.8702   -1.7534   53.1942 O.3     1  ZINC000279331220   -0.3000
     11 C11       -10.9836   -3.0126   52.5282 C.3     1  ZINC000279331220    0.0600
     12 C12       -12.1927   -3.7728   53.0766 C.3     1  ZINC000279331220   -0.1100
     13 C13       -12.1521   -3.7607   54.6059 C.3     1  ZINC000279331220   -0.1300
     14 C14       -13.1669   -4.7367   55.1431 C.2     1  ZINC000279331220    0.5200
     15 O15       -13.9542   -5.2691   54.3898 O.2     1  ZINC000279331220   -0.5200
     16 N16       -13.1996   -5.0180   56.4608 N.am    1  ZINC000279331220   -0.5700
     17 C17       -14.1851   -5.9682   56.9826 C.3     1  ZINC000279331220    0.0800
     18 C18       -12.2958   -4.4049   57.3271 C.ar    1  ZINC000279331220    0.3400
     19 N19       -11.1480   -5.0014   57.6069 N.ar    1  ZINC000279331220   -0.4800
     20 C20       -10.2650   -4.4559   58.4214 C.ar    1  ZINC000279331220    0.1100
     21 C21       -10.5099   -3.2336   59.0150 C.ar    1  ZINC000279331220   -0.1600
     22 C22       -11.7025   -2.5748   58.7475 C.ar    1  ZINC000279331220   -0.0700
     23 C23       -12.6060   -3.1696   57.8849 C.ar    1  ZINC000279331220   -0.1200
     24 C24       -13.9137   -2.4932   57.5632 C.3     1  ZINC000279331220   -0.1100
     25 H25        -9.1963    0.9152   57.1857 H       1  ZINC000279331220    0.0800
     26 H26       -10.3064   -0.3298   56.5646 H       1  ZINC000279331220    0.0700
     27 H27        -8.7375   -0.0592   55.7686 H       1  ZINC000279331220    0.0700
     28 H28       -11.0427    1.9383   55.8846 H       1  ZINC000279331220    0.0600
     29 H29        -9.4738    2.2090   55.0886 H       1  ZINC000279331220    0.0600
     30 H30        -8.6636    2.1910   53.2920 H       1  ZINC000279331220    0.1300
     31 H31        -6.9819    1.3711   51.6920 H       1  ZINC000279331220    0.1300
     32 H32        -7.1373   -0.9162   50.8010 H       1  ZINC000279331220    0.1300
     33 H33        -8.9751   -2.3946   51.5058 H       1  ZINC000279331220    0.1300
     34 H34       -11.1128   -2.8474   51.4585 H       1  ZINC000279331220    0.0600
     35 H35       -10.0792   -3.5966   52.6990 H       1  ZINC000279331220    0.0600
     36 H36       -13.1096   -3.2932   52.7337 H       1  ZINC000279331220    0.0800
     37 H37       -12.1664   -4.8027   52.7205 H       1  ZINC000279331220    0.0800
     38 H38       -11.1568   -4.0478   54.9452 H       1  ZINC000279331220    0.1000
     39 H39       -12.3844   -2.7591   54.9677 H       1  ZINC000279331220    0.1000
     40 H40       -13.8019   -6.9833   56.8779 H       1  ZINC000279331220    0.0700
     41 H41       -14.3713   -5.7570   58.0356 H       1  ZINC000279331220    0.0800
     42 H42       -15.1151   -5.8714   56.4226 H       1  ZINC000279331220    0.0800
     43 H43        -9.3390   -4.9722   58.6268 H       1  ZINC000279331220    0.1600
     44 H44        -9.7815   -2.7946   59.6807 H       1  ZINC000279331220    0.1400
     45 H45       -11.9179   -1.6177   59.1990 H       1  ZINC000279331220    0.1400
     46 H46       -13.8102   -1.9226   56.6402 H       1  ZINC000279331220    0.0800
     47 H47       -14.6916   -3.2466   57.4393 H       1  ZINC000279331220    0.0700
     48 H48       -14.1850   -1.8211   58.3773 H       1  ZINC000279331220    0.0700
@<TRIPOS>BOND
     1     1     2    1
     2     1    25    1
     3     1    26    1
     4     1    27    1
     5     2     3    1
     6     2    28    1
     7     2    29    1
     8     3     4    1
     9     4     9   ar
    10     4     5   ar
    11     5     6   ar
    12     5    30    1
    13     6     7   ar
    14     6    31    1
    15     7     8   ar
    16     7    32    1
    17     8     9   ar
    18     8    33    1
    19     9    10    1
    20    10    11    1
    21    11    12    1
    22    11    34    1
    23    11    35    1
    24    12    13    1
    25    12    36    1
    26    12    37    1
    27    13    14    1
    28    13    38    1
    29    13    39    1
    30    14    15    2
    31    14    16   am
    32    16    17    1
    33    16    18    1
    34    17    40    1
    35    17    41    1
    36    17    42    1
    37    18    23   ar
    38    18    19   ar
    39    19    20   ar
    40    20    21   ar
    41    20    43    1
    42    21    22   ar
    43    21    44    1
    44    22    23   ar
    45    22    45    1
    46    23    24    1
    47    24    46    1
    48    24    47    1
    49    24    48    1
@<TRIPOS>SUBSTRUCTURE
     1 ZINC000279331220        1 TEMP              0 ****  ****    0 ROOT


##########                                Name:    ZINC000971513996
##########                DOCK_Rotatable_Bonds:                   6
##########                         Heavy_Atoms:                  27
##########                    Molecular_Weight:             369.464
##########                DOCK_Rotatable_Bonds:                   6
##########                       Formal_Charge:          -0.0300002
##########                     HBond_Acceptors:                   6
##########                        HBond_Donors:                   1
##########                         Heavy_Atoms:                  27
##########                          Grid_Score:          -35.308064
##########                     Grid_vdw_energy:          -34.601219
##########                      Grid_es_energy:           -0.706843
##########           Internal_energy_repulsive:           24.630699

@<TRIPOS>MOLECULE
ZINC000971513996
 54 57 1 0 0
SMALL
USER_CHARGES


@<TRIPOS>ATOM
      1 C1        -15.1974    0.6855   59.3269 C.3     1  ZINC000971513996   -0.1600
      2 C2        -15.4952   -0.7151   59.8661 C.3     1  ZINC000971513996   -0.1400
      3 C3        -14.2351   -1.2900   60.5161 C.3     1  ZINC000971513996    0.0800
      4 H4        -13.9074   -0.6301   61.3194 H       1  ZINC000971513996    0.0800
      5 O5        -14.5225   -2.5840   61.0499 O.3     1  ZINC000971513996   -0.3600
      6 C6        -15.0299   -3.5103   60.0872 C.3     1  ZINC000971513996    0.0200
      7 C7        -13.1441   -1.4037   59.4829 C.2     1  ZINC000971513996    0.5400
      8 O8        -13.4219   -1.6829   58.3358 O.2     1  ZINC000971513996   -0.5100
      9 N9        -11.8595   -1.1950   59.8334 N.am    1  ZINC000971513996   -0.6400
     10 C10       -11.1301   -0.8507   61.0657 C.3     1  ZINC000971513996    0.1000
     11 C11        -9.9221   -1.6120   60.4866 C.3     1  ZINC000971513996   -0.1200
     12 H12        -8.9515   -1.1581   60.6867 H       1  ZINC000971513996    0.1100
     13 C13        -9.9888   -3.1037   60.8231 C.3     1  ZINC000971513996   -0.1200
     14 C14        -9.4768   -3.9133   59.6282 C.3     1  ZINC000971513996    0.1100
     15 N15       -10.3051   -3.5875   58.4642 N.am    1  ZINC000971513996   -0.6000
     16 C16       -10.9437   -4.5721   57.8015 C.2     1  ZINC000971513996    0.5900
     17 O17       -10.8313   -5.7258   58.1702 O.2     1  ZINC000971513996   -0.5200
     18 C18       -11.7766   -4.2517   56.6325 C.2     1  ZINC000971513996    0.0200
     19 C19       -13.1349   -4.2638   56.6062 C.2     1  ZINC000971513996   -0.1000
     20 C20       -13.5442   -3.8979   55.3011 C.ar    1  ZINC000971513996   -0.1100
     21 C21       -14.7966   -3.7429   54.6936 C.ar    1  ZINC000971513996   -0.0600
     22 C22       -14.8740   -3.3708   53.3829 C.ar    1  ZINC000971513996   -0.1200
     23 C23       -16.2232   -3.2050   52.7323 C.3     1  ZINC000971513996   -0.1100
     24 C24       -13.7209   -3.1428   52.6430 C.ar    1  ZINC000971513996   -0.0800
     25 C25       -12.4778   -3.2885   53.2176 C.ar    1  ZINC000971513996   -0.1300
     26 C26       -12.3729   -3.6677   54.5527 C.ar    1  ZINC000971513996    0.1100
     27 N27       -11.3026   -3.8844   55.3880 N.pl3   1  ZINC000971513996   -0.5800
     28 C28       -10.4443   -2.2076   58.0179 C.3     1  ZINC000971513996    0.0700
     29 C29       -10.5577   -1.2146   59.1625 C.3     1  ZINC000971513996    0.1300
     30 H30       -10.2558   -0.2151   58.8497 H       1  ZINC000971513996    0.1100
     31 H31       -16.0615    1.0531   58.7735 H       1  ZINC000971513996    0.0600
     32 H32       -14.9858    1.3576   60.1585 H       1  ZINC000971513996    0.0600
     33 H33       -14.3327    0.6436   58.6645 H       1  ZINC000971513996    0.0600
     34 H34       -16.2923   -0.6571   60.6073 H       1  ZINC000971513996    0.0800
     35 H35       -15.8081   -1.3612   59.0459 H       1  ZINC000971513996    0.0800
     36 H36       -16.0049   -3.1721   59.7365 H       1  ZINC000971513996    0.0400
     37 H37       -14.3417   -3.5717   59.2442 H       1  ZINC000971513996    0.0500
     38 H38       -15.1301   -4.4935   60.5469 H       1  ZINC000971513996    0.0900
     39 H39       -10.9547    0.2187   61.1833 H       1  ZINC000971513996    0.0900
     40 H40       -11.5464   -1.3120   61.9613 H       1  ZINC000971513996    0.0800
     41 H41        -9.3672   -3.3084   61.6948 H       1  ZINC000971513996    0.0900
     42 H42       -11.0205   -3.3830   61.0368 H       1  ZINC000971513996    0.0700
     43 H43        -8.4382   -3.6519   59.4250 H       1  ZINC000971513996    0.0800
     44 H44        -9.5522   -4.9786   59.8466 H       1  ZINC000971513996    0.1000
     45 H45       -13.7858   -4.5086   57.4326 H       1  ZINC000971513996    0.1500
     46 H46       -15.6989   -3.9180   55.2608 H       1  ZINC000971513996    0.1200
     47 H47       -16.5628   -2.1767   52.8570 H       1  ZINC000971513996    0.0700
     48 H48       -16.1451   -3.4355   51.6698 H       1  ZINC000971513996    0.0600
     49 H49       -16.9377   -3.8827   53.1996 H       1  ZINC000971513996    0.0600
     50 H50       -13.7997   -2.8487   51.6068 H       1  ZINC000971513996    0.1300
     51 H51       -11.5870   -3.1093   52.6339 H       1  ZINC000971513996    0.1200
     52 H52       -10.3682   -3.7950   55.1434 H       1  ZINC000971513996    0.4200
     53 H53        -9.5707   -1.9412   57.4229 H       1  ZINC000971513996    0.0800
     54 H54       -11.3314   -2.1296   57.3893 H       1  ZINC000971513996    0.1200
@<TRIPOS>BOND
     1     1     2    1
     2     1    31    1
     3     1    32    1
     4     1    33    1
     5     2     3    1
     6     2    34    1
     7     2    35    1
     8     3     4    1
     9     3     5    1
    10     3     7    1
    11     5     6    1
    12     6    36    1
    13     6    37    1
    14     6    38    1
    15     7     8    2
    16     7     9   am
    17     9    29    1
    18     9    10    1
    19    10    11    1
    20    10    39    1
    21    10    40    1
    22    11    12    1
    23    11    29    1
    24    11    13    1
    25    13    14    1
    26    13    41    1
    27    13    42    1
    28    14    15    1
    29    14    43    1
    30    14    44    1
    31    15    16   am
    32    15    28    1
    33    16    17    2
    34    16    18    1
    35    18    27    1
    36    18    19    2
    37    19    20    1
    38    19    45    1
    39    20    26   ar
    40    20    21   ar
    41    21    22   ar
    42    21    46    1
    43    22    23    1
    44    22    24   ar
    45    23    47    1
    46    23    48    1
    47    23    49    1
    48    24    25   ar
    49    24    50    1
    50    25    26   ar
    51    25    51    1
    52    26    27    1
    53    27    52    1
    54    28    29    1
    55    28    53    1
    56    28    54    1
    57    29    30    1
@<TRIPOS>SUBSTRUCTURE
     1 ZINC000971513996        1 TEMP              0 ****  ****    0 ROOT


##########                                Name:    ZINC000432058199
##########                DOCK_Rotatable_Bonds:                   5
##########                         Heavy_Atoms:                  30
##########                    Molecular_Weight:             406.441
##########                DOCK_Rotatable_Bonds:                   5
##########                       Formal_Charge:        -4.02331e-07
##########                     HBond_Acceptors:                   8
##########                        HBond_Donors:                   1
##########                         Heavy_Atoms:                  30
##########                          Grid_Score:          -35.305412
##########                     Grid_vdw_energy:          -35.504726
##########                      Grid_es_energy:            0.199313
##########           Internal_energy_repulsive:           16.142912

@<TRIPOS>MOLECULE
ZINC000432058199
 52 55 1 0 0
SMALL
USER_CHARGES


@<TRIPOS>ATOM
      1 C1         -7.2710    1.4592   51.2618 C.3     1  ZINC000432058199    0.0300
      2 O2         -7.8130    0.2044   51.6790 O.3     1  ZINC000432058199   -0.3100
      3 C3         -9.1072    0.1988   52.0940 C.ar    1  ZINC000432058199    0.1300
      4 C4         -9.8395    1.3778   52.0986 C.ar    1  ZINC000432058199   -0.1900
      5 C5        -11.1562    1.3765   52.5199 C.ar    1  ZINC000432058199   -0.0800
      6 C6        -11.7497    0.2026   52.9384 C.ar    1  ZINC000432058199   -0.1100
      7 C7        -11.0214   -0.9856   52.9363 C.ar    1  ZINC000432058199    0.0100
      8 C8        -11.6575   -2.2493   53.3854 C.2     1  ZINC000432058199    0.2100
      9 N9        -11.0675   -3.4073   53.5281 N.2     1  ZINC000432058199   -0.3700
     10 O10       -11.8651   -4.2373   53.9100 O.3     1  ZINC000432058199    0.1200
     11 C11       -13.0720   -3.6806   54.0528 C.2     1  ZINC000432058199    0.1600
     12 C12       -14.3297   -4.3748   54.5083 C.3     1  ZINC000432058199    0.2500
     13 H13       -14.3001   -5.4197   54.1995 H       1  ZINC000432058199    0.1500
     14 C14       -15.5457   -3.6914   53.8796 C.3     1  ZINC000432058199   -0.1700
     15 N15       -14.4277   -4.2996   55.9681 N.am    1  ZINC000432058199   -0.5800
     16 C16       -14.4846   -5.3663   56.7736 C.2     1  ZINC000432058199    0.7000
     17 O17       -14.4614   -6.5147   56.3763 O.2     1  ZINC000432058199   -0.5100
     18 N18       -14.5703   -5.0258   58.0721 N.am    1  ZINC000432058199   -0.7200
     19 C19       -14.5693   -3.5535   58.1226 C.3     1  ZINC000432058199    0.1400
     20 H20       -15.4960   -3.1842   58.5619 H       1  ZINC000432058199    0.1400
     21 C21       -13.3793   -3.0503   58.8983 C.ar    1  ZINC000432058199   -0.1000
     22 C22       -12.1136   -3.5237   58.6063 C.ar    1  ZINC000432058199   -0.1000
     23 C23       -11.0220   -3.0622   59.3179 C.ar    1  ZINC000432058199   -0.0800
     24 C24        -9.6424   -3.5784   59.0000 C.3     1  ZINC000432058199   -0.1200
     25 C25       -11.1959   -2.1267   60.3207 C.ar    1  ZINC000432058199   -0.1100
     26 C26       -12.4615   -1.6531   60.6123 C.ar    1  ZINC000432058199   -0.0800
     27 C27       -12.6511   -0.6336   61.7059 C.3     1  ZINC000432058199   -0.1200
     28 C28       -13.5525   -2.1115   59.8979 C.ar    1  ZINC000432058199   -0.1000
     29 C29       -14.4658   -3.1472   56.6659 C.2     1  ZINC000432058199    0.5300
     30 O30       -14.4305   -2.0201   56.2207 O.2     1  ZINC000432058199   -0.4500
     31 N31       -12.9545   -2.4170   53.7289 N.2     1  ZINC000432058199   -0.4500
     32 C32        -9.6970   -0.9849   52.5070 C.ar    1  ZINC000432058199   -0.1200
     33 H33        -6.2335    1.3232   50.9563 H       1  ZINC000432058199    0.1000
     34 H34        -7.8496    1.8436   50.4218 H       1  ZINC000432058199    0.0600
     35 H35        -7.3165    2.1676   52.0889 H       1  ZINC000432058199    0.0600
     36 H36        -9.3794    2.2988   51.7725 H       1  ZINC000432058199    0.1400
     37 H37       -11.7219    2.2965   52.5221 H       1  ZINC000432058199    0.1400
     38 H38       -12.7784    0.2050   53.2676 H       1  ZINC000432058199    0.1400
     39 H39       -15.5752   -2.6465   54.1884 H       1  ZINC000432058199    0.0900
     40 H40       -15.4727   -3.7473   52.7935 H       1  ZINC000432058199    0.0900
     41 H41       -16.4553   -4.1935   54.2091 H       1  ZINC000432058199    0.0900
     42 H42       -14.6231   -5.6315   58.8279 H       1  ZINC000432058199    0.4500
     43 H43       -11.9778   -4.2541   57.8226 H       1  ZINC000432058199    0.1200
     44 H44        -9.1841   -2.9460   58.2396 H       1  ZINC000432058199    0.0700
     45 H45        -9.0315   -3.5622   59.9026 H       1  ZINC000432058199    0.0700
     46 H46        -9.7137   -4.6004   58.6279 H       1  ZINC000432058199    0.0700
     47 H47       -10.3431   -1.7662   60.8766 H       1  ZINC000432058199    0.1300
     48 H48       -12.5711    0.3689   61.2858 H       1  ZINC000432058199    0.0700
     49 H49       -13.6357   -0.7619   62.1553 H       1  ZINC000432058199    0.0700
     50 H50       -11.8834   -0.7708   62.4675 H       1  ZINC000432058199    0.0700
     51 H51       -14.5413   -1.7415   60.1257 H       1  ZINC000432058199    0.1300
     52 H52        -9.1284   -1.9031   52.5035 H       1  ZINC000432058199    0.1400
@<TRIPOS>BOND
     1     1     2    1
     2     1    33    1
     3     1    34    1
     4     1    35    1
     5     2     3    1
     6     3    32   ar
     7     3     4   ar
     8     4     5   ar
     9     4    36    1
    10     5     6   ar
    11     5    37    1
    12     6     7   ar
    13     6    38    1
    14     7     8    1
    15     7    32   ar
    16     8    31    1
    17     8     9    2
    18     9    10    1
    19    10    11    1
    20    11    12    1
    21    11    31    2
    22    12    13    1
    23    12    14    1
    24    12    15    1
    25    14    39    1
    26    14    40    1
    27    14    41    1
    28    15    29   am
    29    15    16   am
    30    16    17    2
    31    16    18   am
    32    18    19    1
    33    18    42    1
    34    19    20    1
    35    19    21    1
    36    19    29    1
    37    21    28   ar
    38    21    22   ar
    39    22    23   ar
    40    22    43    1
    41    23    24    1
    42    23    25   ar
    43    24    44    1
    44    24    45    1
    45    24    46    1
    46    25    26   ar
    47    25    47    1
    48    26    27    1
    49    26    28   ar
    50    27    48    1
    51    27    49    1
    52    27    50    1
    53    28    51    1
    54    29    30    2
    55    32    52    1
@<TRIPOS>SUBSTRUCTURE
     1 ZINC000432058199        1 TEMP              0 ****  ****    0 ROOT


##########                                Name:    ZINC000788423111
##########                DOCK_Rotatable_Bonds:                   7
##########                         Heavy_Atoms:                  23
##########                    Molecular_Weight:             399.243
##########                DOCK_Rotatable_Bonds:                   7
##########                       Formal_Charge:         1.04308e-07
##########                     HBond_Acceptors:                   8
##########                        HBond_Donors:                   1
##########                         Heavy_Atoms:                  23
##########                          Grid_Score:          -35.297050
##########                     Grid_vdw_energy:          -34.994881
##########                      Grid_es_energy:           -0.302170
##########           Internal_energy_repulsive:            4.850975

@<TRIPOS>MOLECULE
ZINC000788423111
 35 37 1 0 0
SMALL
USER_CHARGES


@<TRIPOS>ATOM
      1 O1        -14.8424   -5.6600   55.1943 O.3     1  ZINC000788423111   -0.5400
      2 C2        -13.6089   -4.9820   54.9472 C.3     1  ZINC000788423111    0.1000
      3 H3        -12.9276   -5.6485   54.4184 H       1  ZINC000788423111    0.1300
      4 C4        -12.9817   -4.5631   56.2783 C.3     1  ZINC000788423111    0.0300
      5 O5        -11.6311   -4.1501   56.0595 O.3     1  ZINC000788423111   -0.2900
      6 C6        -11.0174   -3.4852   57.0734 C.ar    1  ZINC000788423111    0.1700
      7 C7        -10.5347   -4.1837   58.1698 C.ar    1  ZINC000788423111   -0.2400
      8 C8         -9.9102   -3.5045   59.2012 C.ar    1  ZINC000788423111    0.1500
      9 F9         -9.4394   -4.1839   60.2699 F       1  ZINC000788423111   -0.1300
     10 C10        -9.7672   -2.1288   59.1380 C.ar    1  ZINC000788423111   -0.1600
     11 C11       -10.2489   -1.4312   58.0447 C.ar    1  ZINC000788423111   -0.0300
     12 Br12      -10.0521    0.4477   57.9614 Br      1  ZINC000788423111   -0.0200
     13 C13       -10.8681   -2.1071   57.0102 C.ar    1  ZINC000788423111   -0.1300
     14 C14       -13.8718   -3.7396   54.0939 C.3     1  ZINC000788423111    0.1000
     15 N15       -12.6528   -3.3807   53.3651 N.pl3   1  ZINC000788423111   -0.1300
     16 N16       -12.0975   -4.0926   52.4475 N.2     1  ZINC000788423111   -0.0500
     17 N17       -11.0453   -3.4807   52.0207 N.2     1  ZINC000788423111   -0.2600
     18 C18       -10.9454   -2.3331   52.7092 C.2     1  ZINC000788423111    0.2400
     19 C19        -9.8941   -1.3030   52.5627 C.2     1  ZINC000788423111   -0.1300
     20 C20        -9.8966   -0.0976   53.1646 C.2     1  ZINC000788423111   -0.0800
     21 C21        -8.8048    0.6946   52.8742 C.2     1  ZINC000788423111   -0.1400
     22 C22        -7.9138    0.1474   52.0426 C.2     1  ZINC000788423111   -0.2000
     23 S23        -8.4432   -1.4650   51.5815 S.3     1  ZINC000788423111    0.1700
     24 N24       -11.9717   -2.3005   53.5385 N.2     1  ZINC000788423111   -0.2900
     25 H25       -14.7559   -6.6204   55.2656 H       1  ZINC000788423111    0.3800
     26 H26       -13.5501   -3.7359   56.7035 H       1  ZINC000788423111    0.0900
     27 H27       -12.9964   -5.4066   56.9684 H       1  ZINC000788423111    0.0800
     28 H28       -10.6463   -5.2568   58.2189 H       1  ZINC000788423111    0.1500
     29 H29        -9.2793   -1.5996   59.9432 H       1  ZINC000788423111    0.1500
     30 H30       -11.2436   -1.5618   56.1569 H       1  ZINC000788423111    0.1500
     31 H31       -14.6714   -3.9493   53.3834 H       1  ZINC000788423111    0.1300
     32 H32       -14.1667   -2.9117   54.7388 H       1  ZINC000788423111    0.1300
     33 H33       -10.6908    0.2234   53.8223 H       1  ZINC000788423111    0.1500
     34 H34        -8.6800    1.6842   53.2883 H       1  ZINC000788423111    0.1500
     35 H35        -7.0033    0.6219   51.7076 H       1  ZINC000788423111    0.1700
@<TRIPOS>BOND
     1     1     2    1
     2     1    25    1
     3     2     3    1
     4     2     4    1
     5     2    14    1
     6     4     5    1
     7     4    26    1
     8     4    27    1
     9     5     6    1
    10     6    13   ar
    11     6     7   ar
    12     7     8   ar
    13     7    28    1
    14     8     9    1
    15     8    10   ar
    16    10    11   ar
    17    10    29    1
    18    11    12    1
    19    11    13   ar
    20    13    30    1
    21    14    15    1
    22    14    31    1
    23    14    32    1
    24    15    24    1
    25    15    16    1
    26    16    17    2
    27    17    18    1
    28    18    19    1
    29    18    24    2
    30    19    23    1
    31    19    20    2
    32    20    21    1
    33    20    33    1
    34    21    22    2
    35    21    34    1
    36    22    23    1
    37    22    35    1
@<TRIPOS>SUBSTRUCTURE
     1 ZINC000788423111        1 TEMP              0 ****  ****    0 ROOT


##########                                Name:    ZINC000952280524
##########                DOCK_Rotatable_Bonds:                   9
##########                         Heavy_Atoms:                  25
##########                    Molecular_Weight:             348.486
##########                DOCK_Rotatable_Bonds:                   9
##########                       Formal_Charge:          -0.0100004
##########                     HBond_Acceptors:                   5
##########                        HBond_Donors:                   1
##########                         Heavy_Atoms:                  25
##########                          Grid_Score:          -35.274616
##########                     Grid_vdw_energy:          -32.675861
##########                      Grid_es_energy:           -2.598756
##########           Internal_energy_repulsive:           22.298334

@<TRIPOS>MOLECULE
ZINC000952280524
 57 59 1 0 0
SMALL
USER_CHARGES


@<TRIPOS>ATOM
      1 C1         -8.1937    0.8617   68.6578 C.3     1  ZINC000952280524   -0.1800
      2 C2         -8.3002    1.7764   67.4360 C.3     1  ZINC000952280524    0.1400
      3 C3         -8.4341    3.2292   67.8965 C.3     1  ZINC000952280524   -0.1900
      4 O4         -7.1261    1.6375   66.6332 O.3     1  ZINC000952280524   -0.5500
      5 C5         -9.5297    1.3869   66.6129 C.3     1  ZINC000952280524   -0.1200
      6 C6         -9.1875    0.2231   65.7186 C.2     1  ZINC000952280524    0.5300
      7 O7         -8.5667   -0.7199   66.1615 O.2     1  ZINC000952280524   -0.5100
      8 N8         -9.5713    0.2304   64.4267 N.am    1  ZINC000952280524   -0.6300
      9 C9        -10.3251    1.3040   63.7627 C.3     1  ZINC000952280524    0.1000
     10 C10       -10.5572    0.8648   62.3016 C.3     1  ZINC000952280524   -0.1300
     11 C11       -10.4136   -0.6784   62.3756 C.3     1  ZINC000952280524   -0.1000
     12 H12       -11.3434   -1.1419   62.7056 H       1  ZINC000952280524    0.0900
     13 C13        -9.9654   -1.2525   61.0301 C.3     1  ZINC000952280524   -0.0700
     14 C14        -9.5699   -2.7200   61.2084 C.3     1  ZINC000952280524   -0.1300
     15 C15        -9.0889   -3.2818   59.8667 C.3     1  ZINC000952280524    0.1100
     16 N16       -10.1333   -3.0565   58.8581 N.am    1  ZINC000952280524   -0.6100
     17 C17       -10.6079   -4.0800   58.1207 C.2     1  ZINC000952280524    0.5500
     18 O18       -10.1716   -5.2029   58.2870 O.2     1  ZINC000952280524   -0.5500
     19 C19       -11.6537   -3.8388   57.1146 C.2     1  ZINC000952280524   -0.2200
     20 C20       -12.6154   -4.7380   56.9264 C.2     1  ZINC000952280524   -0.0300
     21 C21       -13.6878   -4.4900   55.8970 C.3     1  ZINC000952280524   -0.1500
     22 C22       -15.0035   -5.2557   56.0492 C.3     1  ZINC000952280524   -0.1700
     23 C23       -14.9507   -3.7575   56.3549 C.3     1  ZINC000952280524   -0.1600
     24 C24       -10.6509   -1.6945   58.6691 C.3     1  ZINC000952280524    0.1000
     25 C25       -11.1143   -1.1506   60.0241 C.3     1  ZINC000952280524   -0.1300
     26 C26        -9.2995   -0.8341   63.4436 C.3     1  ZINC000952280524    0.1100
     27 H27        -9.0471    1.0315   69.3142 H       1  ZINC000952280524    0.0700
     28 H28        -8.1865   -0.1788   68.3332 H       1  ZINC000952280524    0.0600
     29 H29        -7.2718    1.0808   69.1964 H       1  ZINC000952280524    0.0600
     30 H30        -7.5582    3.5067   68.4829 H       1  ZINC000952280524    0.0600
     31 H31        -8.5099    3.8808   67.0261 H       1  ZINC000952280524    0.0800
     32 H32        -9.3296    3.3352   68.5088 H       1  ZINC000952280524    0.0600
     33 H33        -7.1248    2.1898   65.8395 H       1  ZINC000952280524    0.3700
     34 H34       -10.3409    1.1035   67.2835 H       1  ZINC000952280524    0.1000
     35 H35        -9.8418    2.2344   66.0027 H       1  ZINC000952280524    0.1000
     36 H36       -11.2827    1.4486   64.2630 H       1  ZINC000952280524    0.0700
     37 H37        -9.7494    2.2293   63.7848 H       1  ZINC000952280524    0.0700
     38 H38       -11.5572    1.1436   61.9694 H       1  ZINC000952280524    0.0800
     39 H39        -9.7986    1.2917   61.6456 H       1  ZINC000952280524    0.0800
     40 H40        -9.1090   -0.6879   60.6615 H       1  ZINC000952280524    0.0800
     41 H41        -8.7674   -2.7940   61.9423 H       1  ZINC000952280524    0.0800
     42 H42       -10.4325   -3.2901   61.5532 H       1  ZINC000952280524    0.0700
     43 H43        -8.1735   -2.7730   59.5646 H       1  ZINC000952280524    0.0700
     44 H44        -8.9000   -4.3508   59.9647 H       1  ZINC000952280524    0.0900
     45 H45       -11.6405   -2.9316   56.5289 H       1  ZINC000952280524    0.1300
     46 H46       -12.6277   -5.6458   57.5112 H       1  ZINC000952280524    0.1300
     47 H47       -13.3322   -4.2957   54.8851 H       1  ZINC000952280524    0.1200
     48 H48       -15.5139   -5.5655   55.1373 H       1  ZINC000952280524    0.1000
     49 H49       -15.0935   -5.9388   56.8937 H       1  ZINC000952280524    0.1000
     50 H50       -15.0058   -3.4550   57.4007 H       1  ZINC000952280524    0.1000
     51 H51       -15.4261   -3.0817   55.6441 H       1  ZINC000952280524    0.1000
     52 H52        -9.8629   -1.0563   58.2693 H       1  ZINC000952280524    0.0700
     53 H53       -11.4927   -1.7163   57.9769 H       1  ZINC000952280524    0.0900
     54 H54       -11.9625   -1.7354   60.3801 H       1  ZINC000952280524    0.0700
     55 H55       -11.4112   -0.1075   59.9152 H       1  ZINC000952280524    0.0800
     56 H56        -8.3177   -0.6974   62.9904 H       1  ZINC000952280524    0.0700
     57 H57        -9.3651   -1.8120   63.9205 H       1  ZINC000952280524    0.0800
@<TRIPOS>BOND
     1     1     2    1
     2     1    27    1
     3     1    28    1
     4     1    29    1
     5     2     3    1
     6     2     4    1
     7     2     5    1
     8     3    30    1
     9     3    31    1
    10     3    32    1
    11     4    33    1
    12     5     6    1
    13     5    34    1
    14     5    35    1
    15     6     7    2
    16     6     8   am
    17     8    26    1
    18     8     9    1
    19     9    10    1
    20     9    36    1
    21     9    37    1
    22    10    11    1
    23    10    38    1
    24    10    39    1
    25    11    12    1
    26    11    13    1
    27    11    26    1
    28    13    25    1
    29    13    14    1
    30    13    40    1
    31    14    15    1
    32    14    41    1
    33    14    42    1
    34    15    16    1
    35    15    43    1
    36    15    44    1
    37    16    17   am
    38    16    24    1
    39    17    18    2
    40    17    19    1
    41    19    20    2
    42    19    45    1
    43    20    21    1
    44    20    46    1
    45    21    23    1
    46    21    22    1
    47    21    47    1
    48    22    23    1
    49    22    48    1
    50    22    49    1
    51    23    50    1
    52    23    51    1
    53    24    25    1
    54    24    52    1
    55    24    53    1
    56    25    54    1
    57    25    55    1
    58    26    56    1
    59    26    57    1
@<TRIPOS>SUBSTRUCTURE
     1 ZINC000952280524        1 TEMP              0 ****  ****    0 ROOT


##########                                Name:    ZINC000027473870
##########                DOCK_Rotatable_Bonds:                  10
##########                         Heavy_Atoms:                  31
##########                    Molecular_Weight:             422.502
##########                DOCK_Rotatable_Bonds:                  10
##########                       Formal_Charge:        -7.45058e-08
##########                     HBond_Acceptors:                   7
##########                        HBond_Donors:                   1
##########                         Heavy_Atoms:                  31
##########                          Grid_Score:          -35.268738
##########                     Grid_vdw_energy:          -34.176197
##########                      Grid_es_energy:           -1.092541
##########           Internal_energy_repulsive:           21.217293

@<TRIPOS>MOLECULE
ZINC000027473870
 58 60 1 0 0
SMALL
USER_CHARGES


@<TRIPOS>ATOM
      1 C1        -13.7779   -2.4609   59.8704 C.3     1  ZINC000027473870   -0.1400
      2 C2        -12.7494   -1.3375   59.7252 C.3     1  ZINC000027473870   -0.0800
      3 C3        -11.4242   -1.7952   60.2777 C.2     1  ZINC000027473870    0.1700
      4 C4        -10.6431   -2.8214   59.7843 C.2     1  ZINC000027473870   -0.2900
      5 C5        -10.9495   -3.6722   58.6202 C.2     1  ZINC000027473870    0.6000
      6 O6        -10.8261   -4.8793   58.7001 O.2     1  ZINC000027473870   -0.5400
      7 N7        -11.3663   -3.1123   57.4672 N.am    1  ZINC000027473870   -0.7200
      8 C8        -11.6690   -3.9579   56.3098 C.3     1  ZINC000027473870    0.1600
      9 C9        -11.9857   -3.0874   55.1210 C.ar    1  ZINC000027473870   -0.0900
     10 C10       -11.3956   -3.3510   53.8977 C.ar    1  ZINC000027473870   -0.1100
     11 C11       -11.6807   -2.5579   52.8055 C.ar    1  ZINC000027473870   -0.1100
     12 C12       -12.5670   -1.4876   52.9368 C.ar    1  ZINC000027473870   -0.1200
     13 C13       -12.8777   -0.6336   51.7705 C.2     1  ZINC000027473870    0.5600
     14 O14       -12.3086    0.4310   51.6280 O.2     1  ZINC000027473870   -0.5300
     15 N15       -13.7918   -1.0355   50.8653 N.am    1  ZINC000027473870   -0.6100
     16 C16       -14.4776   -2.3186   51.0371 C.3     1  ZINC000027473870    0.1100
     17 C17       -15.7543   -2.1091   51.8538 C.3     1  ZINC000027473870   -0.1700
     18 C18       -14.0996   -0.1893   49.7097 C.3     1  ZINC000027473870    0.0900
     19 C19       -14.5146   -1.0695   48.5291 C.3     1  ZINC000027473870   -0.1800
     20 C20       -13.1593   -1.2274   54.1736 C.ar    1  ZINC000027473870   -0.0700
     21 C21       -12.8694   -2.0316   55.2565 C.ar    1  ZINC000027473870   -0.1000
     22 C22        -9.4947   -2.9031   60.6039 C.2     1  ZINC000027473870    0.0900
     23 N23        -9.5888   -1.9837   61.5250 N.2     1  ZINC000027473870   -0.2800
     24 N24       -10.7813   -1.2755   61.3389 N.pl3   1  ZINC000027473870   -0.3100
     25 C25       -11.2342   -0.2106   62.1307 C.ar    1  ZINC000027473870    0.1300
     26 C26       -10.5599    1.0029   62.1151 C.ar    1  ZINC000027473870   -0.0900
     27 C27       -11.0078    2.0508   62.8953 C.ar    1  ZINC000027473870   -0.1300
     28 C28       -12.1287    1.8917   63.6928 C.ar    1  ZINC000027473870    0.1100
     29 F29       -12.5656    2.9180   64.4550 F       1  ZINC000027473870   -0.1300
     30 C30       -12.8026    0.6819   63.7096 C.ar    1  ZINC000027473870   -0.1400
     31 C31       -12.3608   -0.3666   62.9269 C.ar    1  ZINC000027473870   -0.0700
     32 H32       -14.7563   -2.1011   59.5522 H       1  ZINC000027473870    0.0700
     33 H33       -13.4823   -3.3067   59.2497 H       1  ZINC000027473870    0.0700
     34 H34       -13.8278   -2.7752   60.9130 H       1  ZINC000027473870    0.0500
     35 H35       -12.6354   -1.0832   58.6714 H       1  ZINC000027473870    0.1200
     36 H36       -13.0893   -0.4604   60.2759 H       1  ZINC000027473870    0.0800
     37 H37       -11.4658   -2.1495   57.4038 H       1  ZINC000027473870    0.4000
     38 H38       -10.8067   -4.5843   56.0820 H       1  ZINC000027473870    0.0800
     39 H39       -12.5276   -4.5899   56.5363 H       1  ZINC000027473870    0.0800
     40 H40       -10.7099   -4.1795   53.7975 H       1  ZINC000027473870    0.1300
     41 H41       -11.2189   -2.7642   51.8513 H       1  ZINC000027473870    0.1500
     42 H42       -14.7345   -2.7270   50.0596 H       1  ZINC000027473870    0.0800
     43 H43       -13.8215   -3.0141   51.5604 H       1  ZINC000027473870    0.0800
     44 H44       -16.2646   -3.0638   51.9816 H       1  ZINC000027473870    0.0700
     45 H45       -15.4974   -1.7008   52.8312 H       1  ZINC000027473870    0.0600
     46 H46       -16.4104   -1.4136   51.3304 H       1  ZINC000027473870    0.0600
     47 H47       -14.9154    0.4879   49.9623 H       1  ZINC000027473870    0.0800
     48 H48       -13.2171    0.3902   49.4383 H       1  ZINC000027473870    0.0900
     49 H49       -14.4944   -0.4807   47.6121 H       1  ZINC000027473870    0.0700
     50 H50       -13.8222   -1.9065   48.4388 H       1  ZINC000027473870    0.0700
     51 H51       -15.5231   -1.4486   48.6953 H       1  ZINC000027473870    0.0600
     52 H52       -13.8456   -0.4005   54.2817 H       1  ZINC000027473870    0.1300
     53 H53       -13.3272   -1.8316   56.2140 H       1  ZINC000027473870    0.1300
     54 H54        -8.6816   -3.6045   60.4885 H       1  ZINC000027473870    0.1900
     55 H55        -9.6855    1.1274   61.4936 H       1  ZINC000027473870    0.1500
     56 H56       -10.4833    2.9949   62.8836 H       1  ZINC000027473870    0.1500
     57 H57       -13.6764    0.5596   64.3325 H       1  ZINC000027473870    0.1500
     58 H58       -12.8868   -1.3097   62.9400 H       1  ZINC000027473870    0.1400
@<TRIPOS>BOND
     1     1     2    1
     2     1    32    1
     3     1    33    1
     4     1    34    1
     5     2     3    1
     6     2    35    1
     7     2    36    1
     8     3    24    1
     9     3     4    2
    10     4     5    1
    11     4    22    1
    12     5     6    2
    13     5     7   am
    14     7     8    1
    15     7    37    1
    16     8     9    1
    17     8    38    1
    18     8    39    1
    19     9    21   ar
    20     9    10   ar
    21    10    11   ar
    22    10    40    1
    23    11    12   ar
    24    11    41    1
    25    12    13    1
    26    12    20   ar
    27    13    14    2
    28    13    15   am
    29    15    16    1
    30    15    18    1
    31    16    17    1
    32    16    42    1
    33    16    43    1
    34    17    44    1
    35    17    45    1
    36    17    46    1
    37    18    19    1
    38    18    47    1
    39    18    48    1
    40    19    49    1
    41    19    50    1
    42    19    51    1
    43    20    21   ar
    44    20    52    1
    45    21    53    1
    46    22    23    2
    47    22    54    1
    48    23    24    1
    49    24    25    1
    50    25    31   ar
    51    25    26   ar
    52    26    27   ar
    53    26    55    1
    54    27    28   ar
    55    27    56    1
    56    28    29    1
    57    28    30   ar
    58    30    31   ar
    59    30    57    1
    60    31    58    1
@<TRIPOS>SUBSTRUCTURE
     1 ZINC000027473870        1 TEMP              0 ****  ****    0 ROOT


##########                                Name:    ZINC000563265674
##########                DOCK_Rotatable_Bonds:                   7
##########                         Heavy_Atoms:                  25
##########                    Molecular_Weight:             386.859
##########                DOCK_Rotatable_Bonds:                   7
##########                       Formal_Charge:          0.00999963
##########                     HBond_Acceptors:                  10
##########                        HBond_Donors:                   2
##########                         Heavy_Atoms:                  25
##########                          Grid_Score:          -35.244785
##########                     Grid_vdw_energy:          -30.469074
##########                      Grid_es_energy:           -4.775710
##########           Internal_energy_repulsive:           17.442003

@<TRIPOS>MOLECULE
ZINC000563265674
 44 45 1 0 0
SMALL
USER_CHARGES


@<TRIPOS>ATOM
      1 C1        -14.1582   -4.9324   57.4350 C.3     1  ZINC000563265674   -0.0600
      2 C2        -12.8616   -4.3462   57.9311 C.2     1  ZINC000563265674    0.1700
      3 N3        -11.7272   -4.9707   58.0402 N.2     1  ZINC000563265674   -0.3800
      4 O4        -10.8752   -4.2216   58.4695 O.3     1  ZINC000563265674    0.0900
      5 C5        -11.4011   -3.0114   58.6815 C.2     1  ZINC000563265674    0.1900
      6 C6        -10.6788   -1.7991   59.2103 C.3     1  ZINC000563265674    0.2100
      7 C7         -9.5493   -2.2443   60.1414 C.3     1  ZINC000563265674   -0.1400
      8 C8        -10.0929   -1.0044   58.0416 C.3     1  ZINC000563265674   -0.1800
      9 N9        -11.6216   -0.9530   59.9540 N.3     1  ZINC000563265674   -0.6600
     10 C10       -10.9420    0.2190   60.5221 C.3     1  ZINC000563265674    0.0400
     11 C11       -11.0008    0.1536   62.0265 C.2     1  ZINC000563265674    0.5200
     12 O12       -11.2876   -0.8882   62.5775 O.2     1  ZINC000563265674   -0.4900
     13 N13       -10.7348    1.2527   62.7597 N.am    1  ZINC000563265674   -0.6700
     14 C14       -10.7894    1.1919   64.1572 C.ar    1  ZINC000563265674    0.1400
     15 C15        -9.6976    0.7252   64.8763 C.ar    1  ZINC000563265674   -0.0300
     16 C16        -9.7543    0.6668   66.2554 C.ar    1  ZINC000563265674   -0.6400
     17 S17        -8.3685    0.0749   67.1686 S.o2    1  ZINC000563265674    2.5000
     18 C18        -6.9391    0.8801   66.3946 C.3     1  ZINC000563265674   -0.6500
     19 O19        -8.5735    0.5776   68.4818 O.2     1  ZINC000563265674   -0.9300
     20 O20        -8.3520   -1.3229   66.9136 O.2     1  ZINC000563265674   -0.9300
     21 C21       -10.8967    1.0725   66.9201 C.ar    1  ZINC000563265674   -0.0300
     22 C22       -11.9868    1.5378   66.2074 C.ar    1  ZINC000563265674   -0.1100
     23 C23       -11.9347    1.6041   64.8281 C.ar    1  ZINC000563265674   -0.0200
     24 Cl24      -13.3030    2.1887   63.9338 Cl      1  ZINC000563265674   -0.0500
     25 N25       -12.6645   -3.0792   58.3370 N.2     1  ZINC000563265674   -0.4700
     26 H26       -14.2250   -4.8042   56.3545 H       1  ZINC000563265674    0.0900
     27 H27       -14.1933   -5.9944   57.6777 H       1  ZINC000563265674    0.0900
     28 H28       -14.9943   -4.4224   57.9137 H       1  ZINC000563265674    0.0900
     29 H29        -8.8497   -2.8722   59.5896 H       1  ZINC000563265674    0.0800
     30 H30        -9.0268   -1.3675   60.5239 H       1  ZINC000563265674    0.0800
     31 H31        -9.9667   -2.8105   60.9740 H       1  ZINC000563265674    0.0700
     32 H32       -10.8975   -0.6872   57.3783 H       1  ZINC000563265674    0.0700
     33 H33        -9.5704   -0.1276   58.4240 H       1  ZINC000563265674    0.0800
     34 H34        -9.3934   -1.6322   57.4897 H       1  ZINC000563265674    0.0800
     35 H35       -12.3957   -0.6742   59.3698 H       1  ZINC000563265674    0.3600
     36 H36        -9.9010    0.2272   60.1992 H       1  ZINC000563265674    0.1200
     37 H37       -11.4362    1.1276   60.1783 H       1  ZINC000563265674    0.0800
     38 H38       -10.5054    2.0858   62.3191 H       1  ZINC000563265674    0.4200
     39 H39        -8.8049    0.4077   64.3581 H       1  ZINC000563265674    0.1700
     40 H40        -7.0455    1.9621   66.4723 H       1  ZINC000563265674    0.1300
     41 H41        -6.0268    0.5673   66.9025 H       1  ZINC000563265674    0.1400
     42 H42        -6.8861    0.5947   65.3439 H       1  ZINC000563265674    0.1400
     43 H43       -10.9380    1.0257   67.9983 H       1  ZINC000563265674    0.1500
     44 H44       -12.8779    1.8537   66.7295 H       1  ZINC000563265674    0.1500
@<TRIPOS>BOND
     1     1     2    1
     2     1    26    1
     3     1    27    1
     4     1    28    1
     5     2    25    1
     6     2     3    2
     7     3     4    1
     8     4     5    1
     9     5     6    1
    10     5    25    2
    11     6     7    1
    12     6     8    1
    13     6     9    1
    14     7    29    1
    15     7    30    1
    16     7    31    1
    17     8    32    1
    18     8    33    1
    19     8    34    1
    20     9    10    1
    21     9    35    1
    22    10    11    1
    23    10    36    1
    24    10    37    1
    25    11    12    2
    26    11    13   am
    27    13    14    1
    28    13    38    1
    29    14    23   ar
    30    14    15   ar
    31    15    16   ar
    32    15    39    1
    33    16    17    1
    34    16    21   ar
    35    17    18    1
    36    17    19    2
    37    17    20    2
    38    18    40    1
    39    18    41    1
    40    18    42    1
    41    21    22   ar
    42    21    43    1
    43    22    23   ar
    44    22    44    1
    45    23    24    1
@<TRIPOS>SUBSTRUCTURE
     1 ZINC000563265674        1 TEMP              0 ****  ****    0 ROOT


##########                                Name:    ZINC000002634904
##########                DOCK_Rotatable_Bonds:                   7
##########                         Heavy_Atoms:                  31
##########                    Molecular_Weight:             423.498
##########                DOCK_Rotatable_Bonds:                   7
##########                       Formal_Charge:        -7.45058e-08
##########                     HBond_Acceptors:                   7
##########                        HBond_Donors:                   1
##########                         Heavy_Atoms:                  31
##########                          Grid_Score:          -35.231709
##########                     Grid_vdw_energy:          -34.712692
##########                      Grid_es_energy:           -0.519016
##########           Internal_energy_repulsive:            8.982837

@<TRIPOS>MOLECULE
ZINC000002634904
 48 51 1 0 0
SMALL
USER_CHARGES


@<TRIPOS>ATOM
      1 N1         -5.1102    2.8564   51.7001 N.1     1  ZINC000002634904   -0.4100
      2 C2         -5.9376    2.0811   51.7677 C.1     1  ZINC000002634904    0.2500
      3 C3         -6.9808    1.1038   51.8527 C.ar    1  ZINC000002634904   -0.0400
      4 C4         -6.9015   -0.0727   51.1022 C.ar    1  ZINC000002634904   -0.0500
      5 C5         -7.9065   -1.0102   51.1865 C.ar    1  ZINC000002634904   -0.1400
      6 C6         -8.9997   -0.7876   52.0173 C.ar    1  ZINC000002634904    0.1700
      7 N7        -10.0162   -1.7400   52.1003 N.am    1  ZINC000002634904   -0.6700
      8 C8        -11.2993   -1.3745   51.9094 C.2     1  ZINC000002634904    0.5400
      9 O9        -11.5706   -0.2179   51.6657 O.2     1  ZINC000002634904   -0.5000
     10 C10       -12.3970   -2.4031   51.9989 C.3     1  ZINC000002634904   -0.1700
     11 S11       -11.8565   -3.7723   53.0522 S.3     1  ZINC000002634904    0.1300
     12 C12       -12.3206   -3.1448   54.6319 C.ar    1  ZINC000002634904    0.2100
     13 N13       -13.5104   -2.5745   54.7849 N.ar    1  ZINC000002634904   -0.2900
     14 N14       -13.8916   -2.1025   55.9198 N.ar    1  ZINC000002634904   -0.1600
     15 C15       -13.0949   -2.1743   56.9809 C.ar    1  ZINC000002634904    0.0600
     16 C16       -13.5321   -1.6318   58.2884 C.ar    1  ZINC000002634904   -0.0500
     17 C17       -13.7183   -0.2593   58.4499 C.ar    1  ZINC000002634904   -0.0800
     18 C18       -14.1257    0.2401   59.6701 C.ar    1  ZINC000002634904   -0.1200
     19 C19       -14.3488   -0.6179   60.7321 C.ar    1  ZINC000002634904   -0.1000
     20 C20       -14.1656   -1.9804   60.5780 C.ar    1  ZINC000002634904   -0.1200
     21 C21       -13.7646   -2.4922   59.3608 C.ar    1  ZINC000002634904   -0.0800
     22 C22       -11.8274   -2.7751   56.8428 C.ar    1  ZINC000002634904    0.2300
     23 C23       -10.9072   -2.8764   57.9995 C.ar    1  ZINC000002634904   -0.0700
     24 C24       -10.3456   -1.7249   58.5502 C.ar    1  ZINC000002634904   -0.0700
     25 C25        -9.4895   -1.8256   59.6278 C.ar    1  ZINC000002634904   -0.1200
     26 C26        -9.1881   -3.0656   60.1617 C.ar    1  ZINC000002634904   -0.0900
     27 C27        -9.7417   -4.2116   59.6195 C.ar    1  ZINC000002634904   -0.1200
     28 C28       -10.6037   -4.1232   58.5455 C.ar    1  ZINC000002634904   -0.0700
     29 N29       -11.4780   -3.2543   55.6513 N.ar    1  ZINC000002634904   -0.4400
     30 C30        -9.0818    0.3819   52.7661 C.ar    1  ZINC000002634904   -0.1200
     31 C31        -8.0780    1.3214   52.6910 C.ar    1  ZINC000002634904   -0.0500
     32 H32        -6.0532   -0.2459   50.4566 H       1  ZINC000002634904    0.1400
     33 H33        -7.8460   -1.9193   50.6065 H       1  ZINC000002634904    0.1400
     34 H34        -9.7992   -2.6652   52.2951 H       1  ZINC000002634904    0.4200
     35 H35       -13.2893   -1.9460   52.4268 H       1  ZINC000002634904    0.1300
     36 H36       -12.6244   -2.7797   51.0017 H       1  ZINC000002634904    0.1300
     37 H37       -13.5438    0.4116   57.6217 H       1  ZINC000002634904    0.1300
     38 H38       -14.2703    1.3028   59.7963 H       1  ZINC000002634904    0.1300
     39 H39       -14.6668   -0.2224   61.6854 H       1  ZINC000002634904    0.1300
     40 H40       -14.3413   -2.6454   61.4107 H       1  ZINC000002634904    0.1300
     41 H41       -13.6223   -3.5562   59.2417 H       1  ZINC000002634904    0.1200
     42 H42       -10.5799   -0.7563   58.1339 H       1  ZINC000002634904    0.1300
     43 H43        -9.0538   -0.9345   60.0549 H       1  ZINC000002634904    0.1300
     44 H44        -8.5176   -3.1394   61.0052 H       1  ZINC000002634904    0.1300
     45 H45        -9.5024   -5.1770   60.0404 H       1  ZINC000002634904    0.1300
     46 H46       -11.0353   -5.0185   58.1231 H       1  ZINC000002634904    0.1300
     47 H47        -9.9319    0.5511   53.4104 H       1  ZINC000002634904    0.1500
     48 H48        -8.1422    2.2289   53.2729 H       1  ZINC000002634904    0.1400
@<TRIPOS>BOND
     1     1     2    3
     2     2     3    1
     3     3    31   ar
     4     3     4   ar
     5     4     5   ar
     6     4    32    1
     7     5     6   ar
     8     5    33    1
     9     6     7    1
    10     6    30   ar
    11     7     8   am
    12     7    34    1
    13     8     9    2
    14     8    10    1
    15    10    11    1
    16    10    35    1
    17    10    36    1
    18    11    12    1
    19    12    29   ar
    20    12    13   ar
    21    13    14   ar
    22    14    15   ar
    23    15    16    1
    24    15    22   ar
    25    16    21   ar
    26    16    17   ar
    27    17    18   ar
    28    17    37    1
    29    18    19   ar
    30    18    38    1
    31    19    20   ar
    32    19    39    1
    33    20    21   ar
    34    20    40    1
    35    21    41    1
    36    22    23    1
    37    22    29   ar
    38    23    28   ar
    39    23    24   ar
    40    24    25   ar
    41    24    42    1
    42    25    26   ar
    43    25    43    1
    44    26    27   ar
    45    26    44    1
    46    27    28   ar
    47    27    45    1
    48    28    46    1
    49    30    31   ar
    50    30    47    1
    51    31    48    1
@<TRIPOS>SUBSTRUCTURE
     1 ZINC000002634904        1 TEMP              0 ****  ****    0 ROOT


##########                                Name:    ZINC001124460178
##########                DOCK_Rotatable_Bonds:                  12
##########                         Heavy_Atoms:                  22
##########                    Molecular_Weight:             328.479
##########                DOCK_Rotatable_Bonds:                  12
##########                       Formal_Charge:          -0.0100003
##########                     HBond_Acceptors:                   7
##########                        HBond_Donors:                   2
##########                         Heavy_Atoms:                  22
##########                          Grid_Score:          -35.230171
##########                     Grid_vdw_energy:          -32.884563
##########                      Grid_es_energy:           -2.345608
##########           Internal_energy_repulsive:           25.289825

@<TRIPOS>MOLECULE
ZINC001124460178
 50 50 1 0 0
SMALL
USER_CHARGES


@<TRIPOS>ATOM
      1 C1        -11.5655   -4.1124   56.8911 C.3     1  ZINC001124460178   -0.0700
      2 C2        -10.7043   -3.7576   58.0759 C.2     1  ZINC001124460178    0.3100
      3 N3         -9.9738   -4.6568   58.6682 N.2     1  ZINC001124460178   -0.5000
      4 S4         -9.1768   -3.8456   59.9311 S.3     1  ZINC001124460178    0.1800
      5 C5         -9.8869   -2.3152   59.5811 C.2     1  ZINC001124460178    0.3400
      6 N6         -9.6815   -1.1198   60.2459 N.pl3   1  ZINC001124460178   -0.6600
      7 C7        -10.6622   -0.0379   60.1277 C.3     1  ZINC001124460178    0.0900
      8 C8        -10.7242    0.7402   61.4436 C.3     1  ZINC001124460178    0.0800
      9 H9         -9.7177    0.8547   61.8458 H       1  ZINC001124460178    0.1200
     10 O10       -11.2926    2.0299   61.2079 O.3     1  ZINC001124460178   -0.5500
     11 C11       -11.5906   -0.0234   62.4472 C.3     1  ZINC001124460178    0.0900
     12 N12       -11.4905    0.6135   63.7627 N.am    1  ZINC001124460178   -0.6100
     13 C13       -12.5460    1.5210   64.2195 C.3     1  ZINC001124460178    0.0800
     14 C14       -10.4272    0.3648   64.5526 C.2     1  ZINC001124460178    0.5100
     15 O15        -9.5526   -0.3853   64.1738 O.2     1  ZINC001124460178   -0.5400
     16 C16       -10.3251    1.0185   65.9066 C.3     1  ZINC001124460178   -0.1400
     17 C17        -9.0392    0.5609   66.5982 C.3     1  ZINC001124460178   -0.1100
     18 C18        -7.8731    1.4389   66.1393 C.3     1  ZINC001124460178   -0.1200
     19 C19        -6.6461    1.1511   67.0066 C.3     1  ZINC001124460178   -0.1200
     20 C20        -5.4538    1.9569   66.4868 C.3     1  ZINC001124460178   -0.1000
     21 C21        -5.0594    1.4467   65.0994 C.3     1  ZINC001124460178   -0.1500
     22 C22        -5.8378    3.4351   66.3965 C.3     1  ZINC001124460178   -0.1500
     23 N23       -10.6632   -2.5302   58.5400 N.2     1  ZINC001124460178   -0.5800
     24 H24       -10.9912   -3.9852   55.9734 H       1  ZINC001124460178    0.0900
     25 H25       -11.8902   -5.1495   56.9755 H       1  ZINC001124460178    0.0900
     26 H26       -12.4378   -3.4592   56.8673 H       1  ZINC001124460178    0.0900
     27 H27        -8.8880   -0.9979   60.7904 H       1  ZINC001124460178    0.4200
     28 H28       -10.3667    0.6339   59.3218 H       1  ZINC001124460178    0.0800
     29 H29       -11.6433   -0.4593   59.9081 H       1  ZINC001124460178    0.0900
     30 H30       -10.6387    2.7327   61.0916 H       1  ZINC001124460178    0.3800
     31 H31       -12.6288   -0.0100   62.1151 H       1  ZINC001124460178    0.0900
     32 H32       -11.2443   -1.0546   62.5154 H       1  ZINC001124460178    0.1000
     33 H33       -13.3068    0.9529   64.7548 H       1  ZINC001124460178    0.0600
     34 H34       -12.1177    2.2711   64.8843 H       1  ZINC001124460178    0.0800
     35 H35       -12.9987    2.0139   63.3592 H       1  ZINC001124460178    0.0800
     36 H36       -10.3074    2.1018   65.7867 H       1  ZINC001124460178    0.0900
     37 H37       -11.1848    0.7341   66.5133 H       1  ZINC001124460178    0.0900
     38 H38        -9.1567    0.6484   67.6783 H       1  ZINC001124460178    0.0700
     39 H39        -8.8364   -0.4778   66.3377 H       1  ZINC001124460178    0.0700
     40 H40        -7.6412    1.2191   65.0972 H       1  ZINC001124460178    0.0600
     41 H41        -8.1487    2.4889   66.2366 H       1  ZINC001124460178    0.0600
     42 H42        -6.8551    1.4357   68.0377 H       1  ZINC001124460178    0.0600
     43 H43        -6.4121    0.0873   66.9635 H       1  ZINC001124460178    0.0600
     44 H44        -4.6118    1.8412   67.1694 H       1  ZINC001124460178    0.0700
     45 H45        -5.9013    1.5623   64.4168 H       1  ZINC001124460178    0.0500
     46 H46        -4.2099    2.0208   64.7291 H       1  ZINC001124460178    0.0500
     47 H47        -4.7857    0.3937   65.1637 H       1  ZINC001124460178    0.0500
     48 H48        -6.1188    3.7986   67.3849 H       1  ZINC001124460178    0.0600
     49 H49        -4.9884    4.0093   66.0262 H       1  ZINC001124460178    0.0500
     50 H50        -6.6797    3.5508   65.7140 H       1  ZINC001124460178    0.0500
@<TRIPOS>BOND
     1     1     2    1
     2     1    24    1
     3     1    25    1
     4     1    26    1
     5     2    23    1
     6     2     3    2
     7     3     4    1
     8     4     5    1
     9     5     6    1
    10     5    23    2
    11     6     7    1
    12     6    27    1
    13     7     8    1
    14     7    28    1
    15     7    29    1
    16     8     9    1
    17     8    10    1
    18     8    11    1
    19    10    30    1
    20    11    12    1
    21    11    31    1
    22    11    32    1
    23    12    13    1
    24    12    14   am
    25    13    33    1
    26    13    34    1
    27    13    35    1
    28    14    15    2
    29    14    16    1
    30    16    17    1
    31    16    36    1
    32    16    37    1
    33    17    18    1
    34    17    38    1
    35    17    39    1
    36    18    19    1
    37    18    40    1
    38    18    41    1
    39    19    20    1
    40    19    42    1
    41    19    43    1
    42    20    21    1
    43    20    22    1
    44    20    44    1
    45    21    45    1
    46    21    46    1
    47    21    47    1
    48    22    48    1
    49    22    49    1
    50    22    50    1
@<TRIPOS>SUBSTRUCTURE
     1 ZINC001124460178        1 TEMP              0 ****  ****    0 ROOT


##########                                Name:    ZINC000826435081
##########                DOCK_Rotatable_Bonds:                   7
##########                         Heavy_Atoms:                  28
##########                    Molecular_Weight:             388.361
##########                DOCK_Rotatable_Bonds:                   7
##########                       Formal_Charge:           0.0099996
##########                     HBond_Acceptors:                  12
##########                        HBond_Donors:                   3
##########                         Heavy_Atoms:                  28
##########                          Grid_Score:          -35.205002
##########                     Grid_vdw_energy:          -32.695026
##########                      Grid_es_energy:           -2.509977
##########           Internal_energy_repulsive:            5.708576

@<TRIPOS>MOLECULE
ZINC000826435081
 45 48 1 0 0
SMALL
USER_CHARGES


@<TRIPOS>ATOM
      1 O1        -10.7507   -0.2015   63.5824 O.2     1  ZINC000826435081   -0.5700
      2 C2         -9.6947   -0.7879   63.4431 C.2     1  ZINC000826435081    0.7200
      3 N3         -8.7790   -0.7712   64.4318 N.am    1  ZINC000826435081   -0.7300
      4 C4         -9.0533   -0.0413   65.6720 C.3     1  ZINC000826435081    0.1500
      5 C5         -7.7513    0.5530   66.2127 C.3     1  ZINC000826435081    0.0400
      6 H6         -7.0648   -0.2520   66.4750 H       1  ZINC000826435081    0.0800
      7 C7         -8.0507    1.3957   67.4559 C.3     1  ZINC000826435081    0.0300
      8 O8         -6.8474    2.0372   67.8892 O.3     1  ZINC000826435081   -0.3800
      9 C9         -6.2507    2.8698   66.8903 C.3     1  ZINC000826435081    0.0200
     10 C10        -5.9512    2.0270   65.6471 C.3     1  ZINC000826435081    0.0200
     11 O11        -7.1537    1.3844   65.2133 O.3     1  ZINC000826435081   -0.3700
     12 N12        -9.4423   -1.4595   62.3021 N.am    1  ZINC000826435081   -0.6400
     13 C13       -10.3943   -1.4769   61.2741 C.2     1  ZINC000826435081    0.3300
     14 N14       -11.0403   -2.5341   60.8414 N.2     1  ZINC000826435081   -0.2800
     15 N15       -11.8978   -2.1314   59.8095 N.pl3   1  ZINC000826435081   -0.3300
     16 C16       -12.7601   -2.9615   59.0846 C.ar    1  ZINC000826435081    0.2200
     17 C17       -12.3136   -3.5935   57.9336 C.ar    1  ZINC000826435081   -0.1300
     18 C18       -13.1655   -4.4131   57.2180 C.ar    1  ZINC000826435081   -0.0500
     19 C19       -14.4672   -4.6087   57.6427 C.ar    1  ZINC000826435081   -0.1500
     20 C20       -14.9271   -3.9854   58.7884 C.ar    1  ZINC000826435081    0.1500
     21 F21       -16.1991   -4.1794   59.2000 F       1  ZINC000826435081   -0.1100
     22 C22       -14.0740   -3.1614   59.5213 C.ar    1  ZINC000826435081   -0.0500
     23 C23       -14.5611   -2.4898   60.7512 C.2     1  ZINC000826435081    0.2100
     24 N24       -15.3951   -1.4705   60.8144 N.2     1  ZINC000826435081   -0.2800
     25 N25       -15.5686   -1.1798   62.0579 N.pl3   1  ZINC000826435081   -0.2300
     26 N26       -14.8716   -1.9819   62.7843 N.2     1  ZINC000826435081   -0.0500
     27 N27       -14.2435   -2.8050   62.0152 N.2     1  ZINC000826435081   -0.2300
     28 C28       -11.7444   -0.7931   59.6370 C.2     1  ZINC000826435081    0.0700
     29 C29       -10.8266   -0.3646   60.5330 C.2     1  ZINC000826435081   -0.2400
     30 H30        -7.9382   -1.2424   64.3222 H       1  ZINC000826435081    0.4000
     31 H31        -9.7634    0.7612   65.4718 H       1  ZINC000826435081    0.0800
     32 H32        -9.4750   -0.7239   66.4097 H       1  ZINC000826435081    0.0900
     33 H33        -8.7986    2.1504   67.2128 H       1  ZINC000826435081    0.0700
     34 H34        -8.4267    0.7516   68.2507 H       1  ZINC000826435081    0.1100
     35 H35        -6.9381    3.6740   66.6281 H       1  ZINC000826435081    0.0600
     36 H36        -5.3231    3.2931   67.2755 H       1  ZINC000826435081    0.1100
     37 H37        -5.5752    2.6712   64.8522 H       1  ZINC000826435081    0.1100
     38 H38        -5.2033    1.2723   65.8901 H       1  ZINC000826435081    0.0600
     39 H39        -8.6016   -1.9307   62.1925 H       1  ZINC000826435081    0.4100
     40 H40       -11.2985   -3.4445   57.5961 H       1  ZINC000826435081    0.1500
     41 H41       -12.8131   -4.9030   56.3223 H       1  ZINC000826435081    0.1500
     42 H42       -15.1269   -5.2503   57.0773 H       1  ZINC000826435081    0.1500
     43 H43       -16.1356   -0.4680   62.3937 H       1  ZINC000826435081    0.4800
     44 H44       -12.2655   -0.1799   58.9166 H       1  ZINC000826435081    0.1800
     45 H45       -10.4813    0.6517   60.6525 H       1  ZINC000826435081    0.1800
@<TRIPOS>BOND
     1     1     2    2
     2     2     3   am
     3     2    12   am
     4     3     4    1
     5     3    30    1
     6     4     5    1
     7     4    31    1
     8     4    32    1
     9     5     6    1
    10     5    11    1
    11     5     7    1
    12     7     8    1
    13     7    33    1
    14     7    34    1
    15     8     9    1
    16     9    10    1
    17     9    35    1
    18     9    36    1
    19    10    11    1
    20    10    37    1
    21    10    38    1
    22    12    13    1
    23    12    39    1
    24    13    29    1
    25    13    14    2
    26    14    15    1
    27    15    16    1
    28    15    28    1
    29    16    22   ar
    30    16    17   ar
    31    17    18   ar
    32    17    40    1
    33    18    19   ar
    34    18    41    1
    35    19    20   ar
    36    19    42    1
    37    20    21    1
    38    20    22   ar
    39    22    23    1
    40    23    27    1
    41    23    24    2
    42    24    25    1
    43    25    26    1
    44    25    43    1
    45    26    27    2
    46    28    29    2
    47    28    44    1
    48    29    45    1
@<TRIPOS>SUBSTRUCTURE
     1 ZINC000826435081        1 TEMP              0 ****  ****    0 ROOT


##########                                Name:    ZINC000185180600
##########                DOCK_Rotatable_Bonds:                   7
##########                         Heavy_Atoms:                  26
##########                    Molecular_Weight:             395.953
##########                DOCK_Rotatable_Bonds:                   7
##########                       Formal_Charge:          0.00999977
##########                     HBond_Acceptors:                   7
##########                        HBond_Donors:                   0
##########                         Heavy_Atoms:                  26
##########                          Grid_Score:          -35.200729
##########                     Grid_vdw_energy:          -34.390064
##########                      Grid_es_energy:           -0.810667
##########           Internal_energy_repulsive:           22.885891

@<TRIPOS>MOLECULE
ZINC000185180600
 52 53 1 0 0
SMALL
USER_CHARGES


@<TRIPOS>ATOM
      1 C1        -16.4958   -2.2435   52.4638 C.3     1  ZINC000185180600   -0.1500
      2 C2        -15.2901   -2.4789   51.5518 C.3     1  ZINC000185180600   -0.0900
      3 C3        -15.7238   -2.3520   50.0901 C.3     1  ZINC000185180600   -0.1500
      4 C4        -14.2101   -1.4385   51.8554 C.3     1  ZINC000185180600   -0.1300
      5 C5        -13.4297   -1.8623   53.1013 C.3     1  ZINC000185180600    0.1300
      6 H6        -14.1234   -2.2318   53.8564 H       1  ZINC000185180600    0.1100
      7 C7        -12.6639   -0.6599   53.6569 C.3     1  ZINC000185180600   -0.1600
      8 N8        -12.4830   -2.9229   52.7472 N.am    1  ZINC000185180600   -0.6000
      9 C9        -11.4074   -2.6549   51.7893 C.3     1  ZINC000185180600    0.0700
     10 C10       -12.6016   -4.1451   53.3026 C.2     1  ZINC000185180600    0.5400
     11 O11       -11.8170   -5.0226   53.0105 O.2     1  ZINC000185180600   -0.5300
     12 C12       -13.7091   -4.4215   54.2866 C.3     1  ZINC000185180600   -0.5000
     13 S13       -13.2483   -3.7680   55.9148 S.o     1  ZINC000185180600    1.3200
     14 O14       -12.1015   -4.4565   56.3943 O.2     1  ZINC000185180600   -0.8000
     15 C15       -14.6812   -4.1900   56.9442 C.3     1  ZINC000185180600   -0.3900
     16 C16       -14.4486   -3.7053   58.3520 C.2     1  ZINC000185180600    0.1000
     17 N17       -13.4371   -2.9797   58.7561 N.2     1  ZINC000185180600   -0.2800
     18 N18       -13.5889   -2.7422   60.1284 N.pl3   1  ZINC000185180600   -0.3200
     19 C19       -12.7156   -2.0041   60.9398 C.ar    1  ZINC000185180600    0.1700
     20 C20       -13.2155   -1.0289   61.7921 C.ar    1  ZINC000185180600   -0.1300
     21 C21       -12.3533   -0.3030   62.5903 C.ar    1  ZINC000185180600   -0.0800
     22 C22       -10.9919   -0.5468   62.5406 C.ar    1  ZINC000185180600   -0.0500
     23 Cl23       -9.9106    0.3672   63.5452 Cl      1  ZINC000185180600   -0.0600
     24 C24       -10.4913   -1.5185   61.6919 C.ar    1  ZINC000185180600   -0.0800
     25 C25       -11.3502   -2.2511   60.8962 C.ar    1  ZINC000185180600   -0.1100
     26 C26       -14.7269   -3.3510   60.5318 C.2     1  ZINC000185180600    0.0600
     27 C27       -15.2800   -3.9483   59.4507 C.2     1  ZINC000185180600   -0.2500
     28 H28       -17.2653   -2.9846   52.2475 H       1  ZINC000185180600    0.0500
     29 H29       -16.1868   -2.3339   53.5051 H       1  ZINC000185180600    0.0600
     30 H30       -16.8943   -1.2442   52.2885 H       1  ZINC000185180600    0.0500
     31 H31       -14.8915   -3.4781   51.7270 H       1  ZINC000185180600    0.0700
     32 H32       -16.4321   -3.1453   49.8510 H       1  ZINC000185180600    0.0500
     33 H33       -16.1978   -1.3828   49.9345 H       1  ZINC000185180600    0.0500
     34 H34       -14.8507   -2.4374   49.4433 H       1  ZINC000185180600    0.0500
     35 H35       -13.5289   -1.3640   51.0078 H       1  ZINC000185180600    0.0700
     36 H36       -14.6779   -0.4700   52.0318 H       1  ZINC000185180600    0.0800
     37 H37       -11.9701   -0.2904   52.9018 H       1  ZINC000185180600    0.0600
     38 H38       -13.3683    0.1291   53.9204 H       1  ZINC000185180600    0.0700
     39 H39       -12.1079   -0.9619   54.5446 H       1  ZINC000185180600    0.0600
     40 H40       -10.5266   -2.2976   52.3227 H       1  ZINC000185180600    0.0600
     41 H41       -11.1609   -3.5717   51.2539 H       1  ZINC000185180600    0.0700
     42 H42       -11.7345   -1.8958   51.0787 H       1  ZINC000185180600    0.0800
     43 H43       -14.6255   -3.9385   53.9472 H       1  ZINC000185180600    0.1500
     44 H44       -13.8706   -5.4970   54.3591 H       1  ZINC000185180600    0.1200
     45 H45       -15.5733   -3.7128   56.5384 H       1  ZINC000185180600    0.1400
     46 H46       -14.8184   -5.2713   56.9503 H       1  ZINC000185180600    0.1000
     47 H47       -14.2778   -0.8377   61.8306 H       1  ZINC000185180600    0.1400
     48 H48       -12.7417    0.4558   63.2534 H       1  ZINC000185180600    0.1500
     49 H49        -9.4285   -1.7067   61.6545 H       1  ZINC000185180600    0.1400
     50 H50       -10.9589   -3.0093   60.2340 H       1  ZINC000185180600    0.1500
     51 H51       -15.1254   -3.3557   61.5357 H       1  ZINC000185180600    0.1800
     52 H52       -16.1972   -4.5183   59.4397 H       1  ZINC000185180600    0.1700
@<TRIPOS>BOND
     1     1     2    1
     2     1    28    1
     3     1    29    1
     4     1    30    1
     5     2     3    1
     6     2     4    1
     7     2    31    1
     8     3    32    1
     9     3    33    1
    10     3    34    1
    11     4     5    1
    12     4    35    1
    13     4    36    1
    14     5     6    1
    15     5     7    1
    16     5     8    1
    17     7    37    1
    18     7    38    1
    19     7    39    1
    20     8     9    1
    21     8    10   am
    22     9    40    1
    23     9    41    1
    24     9    42    1
    25    10    11    2
    26    10    12    1
    27    12    13    1
    28    12    43    1
    29    12    44    1
    30    13    14    2
    31    13    15    1
    32    15    16    1
    33    15    45    1
    34    15    46    1
    35    16    27    1
    36    16    17    2
    37    17    18    1
    38    18    19    1
    39    18    26    1
    40    19    25   ar
    41    19    20   ar
    42    20    21   ar
    43    20    47    1
    44    21    22   ar
    45    21    48    1
    46    22    23    1
    47    22    24   ar
    48    24    25   ar
    49    24    49    1
    50    25    50    1
    51    26    27    2
    52    26    51    1
    53    27    52    1
@<TRIPOS>SUBSTRUCTURE
     1 ZINC000185180600        1 TEMP              0 ****  ****    0 ROOT


##########                                Name:    ZINC000654382142
##########                DOCK_Rotatable_Bonds:                  14
##########                         Heavy_Atoms:                  24
##########                    Molecular_Weight:             379.401
##########                DOCK_Rotatable_Bonds:                  14
##########                       Formal_Charge:          0.00999933
##########                     HBond_Acceptors:                  12
##########                        HBond_Donors:                   2
##########                         Heavy_Atoms:                  24
##########                          Grid_Score:          -35.176533
##########                     Grid_vdw_energy:          -32.729553
##########                      Grid_es_energy:           -2.446978
##########           Internal_energy_repulsive:           14.589572

@<TRIPOS>MOLECULE
ZINC000654382142
 48 47 1 0 0
SMALL
USER_CHARGES


@<TRIPOS>ATOM
      1 C1        -13.9039    0.9971   65.1071 C.3     1  ZINC000654382142    0.0300
      2 O2        -12.5179    1.3042   64.9430 O.3     1  ZINC000654382142   -0.3700
      3 C3        -12.1417    1.5901   63.5944 C.3     1  ZINC000654382142    0.0400
      4 C4        -10.6365    1.8566   63.5303 C.3     1  ZINC000654382142    0.1400
      5 N5         -9.9117    0.6879   64.0353 N.am    1  ZINC000654382142   -0.6100
      6 C6         -9.4068    0.6770   65.4104 C.3     1  ZINC000654382142    0.0800
      7 C7         -8.1653    1.5663   65.5049 C.3     1  ZINC000654382142    0.0500
      8 H8         -8.4079    2.5677   65.1494 H       1  ZINC000654382142    0.1400
      9 O9         -7.1217    1.0146   64.6996 O.3     1  ZINC000654382142   -0.5200
     10 C10        -7.7008    1.6406   66.9609 C.3     1  ZINC000654382142    0.4200
     11 F11        -6.5650    2.4528   67.0472 F       1  ZINC000654382142   -0.1800
     12 F12        -8.7221    2.1817   67.7491 F       1  ZINC000654382142   -0.1700
     13 F13        -7.3906    0.3551   67.4175 F       1  ZINC000654382142   -0.1800
     14 C14        -9.7093   -0.3772   63.2347 C.2     1  ZINC000654382142    0.7100
     15 O15        -9.1090   -1.3478   63.6543 O.2     1  ZINC000654382142   -0.5600
     16 N16       -10.1724   -0.3666   61.9690 N.am    1  ZINC000654382142   -0.7500
     17 C17        -9.9508   -1.5238   61.0982 C.3     1  ZINC000654382142    0.1400
     18 C18       -11.0041   -1.5360   59.9886 C.3     1  ZINC000654382142   -0.1600
     19 C19       -10.3509   -1.9550   58.6700 C.3     1  ZINC000654382142    0.1200
     20 N20       -10.4406   -3.4096   58.5211 N.am    1  ZINC000654382142   -1.0000
     21 C21        -9.6396   -4.2848   59.3806 C.3     1  ZINC000654382142    0.0900
     22 S22       -11.4477   -4.0647   57.3813 S.o2    1  ZINC000654382142    2.6100
     23 C23       -13.0990   -3.4717   57.8419 C.3     1  ZINC000654382142   -0.6800
     24 O24       -11.0276   -3.4716   56.1602 O.2     1  ZINC000654382142   -0.9500
     25 O25       -11.3458   -5.4669   57.5880 O.2     1  ZINC000654382142   -0.9500
     26 H26       -14.1086    0.7923   66.1579 H       1  ZINC000654382142    0.0900
     27 H27       -14.5052    1.8447   64.7783 H       1  ZINC000654382142    0.0400
     28 H28       -14.1549    0.1202   64.5104 H       1  ZINC000654382142    0.0400
     29 H29       -12.3871    0.7382   62.9603 H       1  ZINC000654382142    0.0500
     30 H30       -12.6817    2.4703   63.2454 H       1  ZINC000654382142    0.0600
     31 H31       -10.3448    2.0467   62.4974 H       1  ZINC000654382142    0.0900
     32 H32       -10.3951    2.7260   64.1419 H       1  ZINC000654382142    0.1000
     33 H33       -10.1766    1.0549   66.0832 H       1  ZINC000654382142    0.1000
     34 H34        -9.1455   -0.3428   65.6934 H       1  ZINC000654382142    0.1000
     35 H35        -6.8313    0.1359   64.9800 H       1  ZINC000654382142    0.3900
     36 H36       -10.6524    0.4071   61.6347 H       1  ZINC000654382142    0.3900
     37 H37        -8.9569   -1.4600   60.6552 H       1  ZINC000654382142    0.0700
     38 H38       -10.0295   -2.4396   61.6840 H       1  ZINC000654382142    0.0700
     39 H39       -11.7929   -2.2435   60.2441 H       1  ZINC000654382142    0.0700
     40 H40       -11.4309   -0.5388   59.8818 H       1  ZINC000654382142    0.0800
     41 H41       -10.8662   -1.4722   57.8396 H       1  ZINC000654382142    0.0900
     42 H42        -9.3032   -1.6539   58.6718 H       1  ZINC000654382142    0.1000
     43 H43       -10.2042   -4.5251   60.2815 H       1  ZINC000654382142    0.0600
     44 H44        -9.4032   -5.2036   58.8439 H       1  ZINC000654382142    0.0700
     45 H45        -8.7154   -3.7767   59.6558 H       1  ZINC000654382142    0.0700
     46 H46       -13.1131   -2.3820   57.8194 H       1  ZINC000654382142    0.1300
     47 H47       -13.8341   -3.8592   57.1365 H       1  ZINC000654382142    0.1300
     48 H48       -13.3421   -3.8175   58.8467 H       1  ZINC000654382142    0.1300
@<TRIPOS>BOND
     1     1     2    1
     2     1    26    1
     3     1    27    1
     4     1    28    1
     5     2     3    1
     6     3     4    1
     7     3    29    1
     8     3    30    1
     9     4     5    1
    10     4    31    1
    11     4    32    1
    12     5     6    1
    13     5    14   am
    14     6     7    1
    15     6    33    1
    16     6    34    1
    17     7     8    1
    18     7     9    1
    19     7    10    1
    20     9    35    1
    21    10    11    1
    22    10    12    1
    23    10    13    1
    24    14    15    2
    25    14    16   am
    26    16    17    1
    27    16    36    1
    28    17    18    1
    29    17    37    1
    30    17    38    1
    31    18    19    1
    32    18    39    1
    33    18    40    1
    34    19    20    1
    35    19    41    1
    36    19    42    1
    37    20    21    1
    38    20    22   am
    39    21    43    1
    40    21    44    1
    41    21    45    1
    42    22    23    1
    43    22    24    2
    44    22    25    2
    45    23    46    1
    46    23    47    1
    47    23    48    1
@<TRIPOS>SUBSTRUCTURE
     1 ZINC000654382142        1 TEMP              0 ****  ****    0 ROOT


##########                                Name:    ZINC000654672208
##########                DOCK_Rotatable_Bonds:                   5
##########                         Heavy_Atoms:                  25
##########                    Molecular_Weight:             365.497
##########                DOCK_Rotatable_Bonds:                   5
##########                       Formal_Charge:           0.0100001
##########                     HBond_Acceptors:                   7
##########                        HBond_Donors:                   1
##########                         Heavy_Atoms:                  25
##########                          Grid_Score:          -35.171825
##########                     Grid_vdw_energy:          -34.234329
##########                      Grid_es_energy:           -0.937495
##########           Internal_energy_repulsive:           14.526875

@<TRIPOS>MOLECULE
ZINC000654672208
 52 54 1 0 0
SMALL
USER_CHARGES


@<TRIPOS>ATOM
      1 C1        -11.9777   -2.1300   51.4396 C.3     1  ZINC000654672208   -0.1100
      2 C2        -12.6819   -2.8972   52.5288 C.ar    1  ZINC000654672208   -0.1300
      3 C3        -11.9649   -3.7015   53.3939 C.ar    1  ZINC000654672208    0.1000
      4 N4        -12.5742   -4.3756   54.3498 N.ar    1  ZINC000654672208   -0.4700
      5 C5        -13.8803   -4.3114   54.5191 C.ar    1  ZINC000654672208    0.1200
      6 C6        -14.5273   -5.1019   55.6272 C.3     1  ZINC000654672208   -0.0900
      7 C7        -13.4472   -5.6393   56.5681 C.3     1  ZINC000654672208    0.1500
      8 N8        -12.7386   -4.5177   57.1894 N.am    1  ZINC000654672208   -0.7500
      9 C9        -11.6196   -4.7417   57.9065 C.2     1  ZINC000654672208    0.7100
     10 O10       -11.1983   -5.8746   58.0378 O.2     1  ZINC000654672208   -0.5800
     11 N11       -10.9677   -3.7098   58.4781 N.am    1  ZINC000654672208   -0.6300
     12 C12        -9.7467   -3.9388   59.2625 C.3     1  ZINC000654672208    0.1300
     13 C13        -9.9220   -3.2990   60.6433 C.3     1  ZINC000654672208   -0.1400
     14 C14       -10.2930   -1.8243   60.4751 C.3     1  ZINC000654672208   -0.1100
     15 C15       -11.6246   -1.7146   59.7226 C.3     1  ZINC000654672208   -0.0600
     16 C16       -11.9951   -0.2356   59.5710 C.3     1  ZINC000654672208   -0.1200
     17 C17       -13.5398   -0.1122   59.5237 C.3     1  ZINC000654672208   -0.5800
     18 S18       -14.0315   -1.2947   60.8425 S.o2    1  ZINC000654672208    2.3800
     19 O19       -13.8190   -0.7032   62.1169 O.2     1  ZINC000654672208   -0.9300
     20 O20       -15.2926   -1.8668   60.5242 O.2     1  ZINC000654672208   -0.9300
     21 C21       -12.6977   -2.5014   60.4946 C.3     1  ZINC000654672208   -0.5800
     22 C22       -11.4615   -2.3353   58.3230 C.3     1  ZINC000654672208    0.1200
     23 C23       -14.6627   -3.5274   53.6924 C.ar    1  ZINC000654672208   -0.1200
     24 C24       -16.1548   -3.4595   53.8932 C.3     1  ZINC000654672208   -0.1200
     25 C25       -14.0571   -2.8004   52.6792 C.ar    1  ZINC000654672208   -0.0800
     26 H26       -11.6819   -1.1512   51.8175 H       1  ZINC000654672208    0.0700
     27 H27       -11.0915   -2.6800   51.1225 H       1  ZINC000654672208    0.0700
     28 H28       -12.6500   -2.0038   50.5910 H       1  ZINC000654672208    0.0700
     29 H29       -10.8931   -3.7794   53.2858 H       1  ZINC000654672208    0.1600
     30 H30       -15.2067   -4.4570   56.1846 H       1  ZINC000654672208    0.0900
     31 H31       -15.0853   -5.9355   55.2009 H       1  ZINC000654672208    0.0900
     32 H32       -13.9111   -6.2500   57.3427 H       1  ZINC000654672208    0.0700
     33 H33       -12.7409   -6.2462   56.0015 H       1  ZINC000654672208    0.0700
     34 H34       -13.0748   -3.6139   57.0847 H       1  ZINC000654672208    0.3900
     35 H35        -9.5797   -5.0101   59.3744 H       1  ZINC000654672208    0.1000
     36 H36        -8.8956   -3.4850   58.7547 H       1  ZINC000654672208    0.0700
     37 H37       -10.7153   -3.8142   61.1849 H       1  ZINC000654672208    0.0700
     38 H38        -8.9892   -3.3780   61.2018 H       1  ZINC000654672208    0.0800
     39 H39       -10.3910   -1.3601   61.4563 H       1  ZINC000654672208    0.0800
     40 H40        -9.5128   -1.3157   59.9088 H       1  ZINC000654672208    0.0800
     41 H41       -11.6083    0.3280   60.4201 H       1  ZINC000654672208    0.1000
     42 H42       -11.5677    0.1565   58.6482 H       1  ZINC000654672208    0.1000
     43 H43       -13.8599    0.9011   59.7662 H       1  ZINC000654672208    0.1400
     44 H44       -13.9284   -0.4227   58.5538 H       1  ZINC000654672208    0.1400
     45 H45       -13.0788   -3.3191   59.8831 H       1  ZINC000654672208    0.1400
     46 H46       -12.2851   -2.8869   61.4269 H       1  ZINC000654672208    0.1400
     47 H47       -10.7493   -1.7480   57.7435 H       1  ZINC000654672208    0.0800
     48 H48       -12.4257   -2.3498   57.8150 H       1  ZINC000654672208    0.0800
     49 H49       -16.3923   -2.6475   54.5806 H       1  ZINC000654672208    0.0800
     50 H50       -16.6425   -3.2790   52.9353 H       1  ZINC000654672208    0.0700
     51 H51       -16.5087   -4.4028   54.3091 H       1  ZINC000654672208    0.0700
     52 H52       -14.6432   -2.1793   52.0181 H       1  ZINC000654672208    0.1300
@<TRIPOS>BOND
     1     1     2    1
     2     1    26    1
     3     1    27    1
     4     1    28    1
     5     2    25   ar
     6     2     3   ar
     7     3     4   ar
     8     3    29    1
     9     4     5   ar
    10     5     6    1
    11     5    23   ar
    12     6     7    1
    13     6    30    1
    14     6    31    1
    15     7     8    1
    16     7    32    1
    17     7    33    1
    18     8     9   am
    19     8    34    1
    20     9    10    2
    21     9    11   am
    22    11    22    1
    23    11    12    1
    24    12    13    1
    25    12    35    1
    26    12    36    1
    27    13    14    1
    28    13    37    1
    29    13    38    1
    30    14    15    1
    31    14    39    1
    32    14    40    1
    33    15    21    1
    34    15    16    1
    35    15    22    1
    36    16    17    1
    37    16    41    1
    38    16    42    1
    39    17    18    1
    40    17    43    1
    41    17    44    1
    42    18    19    2
    43    18    20    2
    44    18    21    1
    45    21    45    1
    46    21    46    1
    47    22    47    1
    48    22    48    1
    49    23    24    1
    50    23    25   ar
    51    24    49    1
    52    24    50    1
    53    24    51    1
    54    25    52    1
@<TRIPOS>SUBSTRUCTURE
     1 ZINC000654672208        1 TEMP              0 ****  ****    0 ROOT


##########                                Name:    ZINC000062882109
##########                DOCK_Rotatable_Bonds:                   8
##########                         Heavy_Atoms:                  31
##########                    Molecular_Weight:             424.497
##########                DOCK_Rotatable_Bonds:                   8
##########                       Formal_Charge:           0.0299993
##########                     HBond_Acceptors:                   7
##########                        HBond_Donors:                   1
##########                         Heavy_Atoms:                  31
##########                          Grid_Score:          -35.167225
##########                     Grid_vdw_energy:          -35.195423
##########                      Grid_es_energy:            0.028197
##########           Internal_energy_repulsive:          191.656860

@<TRIPOS>MOLECULE
ZINC000062882109
 59 61 1 0 0
SMALL
USER_CHARGES


@<TRIPOS>ATOM
      1 C1        -12.7366   -3.3903   53.1957 C.3     1  ZINC000062882109   -0.2000
      2 C2        -11.4191   -2.7786   52.7944 C.2     1  ZINC000062882109    0.3900
      3 O3        -10.5081   -3.4888   52.4256 O.2     1  ZINC000062882109   -0.4500
      4 C4        -11.2381   -1.3189   52.8501 C.ar    1  ZINC000062882109   -0.1300
      5 C5        -12.2803   -0.4985   53.2931 C.ar    1  ZINC000062882109   -0.1100
      6 C6        -12.1061    0.8688   53.3435 C.ar    1  ZINC000062882109   -0.0900
      7 C7        -10.9037    1.4324   52.9573 C.ar    1  ZINC000062882109   -0.1800
      8 C8         -9.8622    0.6266   52.5154 C.ar    1  ZINC000062882109    0.1200
      9 O9         -8.6832    1.1874   52.1373 O.3     1  ZINC000062882109   -0.2800
     10 C10        -8.6120    2.6146   52.1443 C.3     1  ZINC000062882109    0.0700
     11 H11        -9.0437    2.9955   53.0698 H       1  ZINC000062882109    0.1000
     12 C12        -9.3923    3.1699   50.9511 C.3     1  ZINC000062882109   -0.1800
     13 C13        -7.1713    3.0461   52.0470 C.2     1  ZINC000062882109    0.5200
     14 O14        -6.8787    4.2162   52.1744 O.2     1  ZINC000062882109   -0.4900
     15 N15        -6.2080    2.1315   51.8184 N.am    1  ZINC000062882109   -0.6600
     16 C16        -4.8687    2.5326   51.7280 C.ar    1  ZINC000062882109    0.1400
     17 C17        -4.2030    2.9920   52.8563 C.ar    1  ZINC000062882109   -0.1000
     18 C18        -2.8826    3.3901   52.7709 C.ar    1  ZINC000062882109   -0.1100
     19 C19        -2.2151    3.3329   51.5567 C.ar    1  ZINC000062882109    0.0800
     20 O20        -0.9182    3.7357   51.4838 O.3     1  ZINC000062882109   -0.3100
     21 C21        -0.1380    3.2718   50.3794 C.3     1  ZINC000062882109    0.0500
     22 C22        -0.9211    3.5181   49.0821 C.3     1  ZINC000062882109    0.0400
     23 N23        -2.2049    2.8052   49.1949 N.am    1  ZINC000062882109   -0.5500
     24 C24        -2.7133    2.1153   48.1546 C.2     1  ZINC000062882109    0.5300
     25 O25        -3.7725    1.5359   48.2707 O.2     1  ZINC000062882109   -0.5100
     26 C26        -1.9656    2.0641   46.8471 C.3     1  ZINC000062882109   -0.0800
     27 C27        -2.8286    1.3674   45.7931 C.3     1  ZINC000062882109   -0.1300
     28 C28        -1.6471    3.4876   46.3856 C.3     1  ZINC000062882109   -0.1600
     29 C29        -0.6622    1.2852   47.0351 C.3     1  ZINC000062882109   -0.1500
     30 C30        -2.8815    2.8687   50.4252 C.ar    1  ZINC000062882109    0.1000
     31 C31        -4.2036    2.4659   50.5108 C.ar    1  ZINC000062882109   -0.1400
     32 C32       -10.0217   -0.7472   52.4658 C.ar    1  ZINC000062882109   -0.0900
     33 H33       -12.6814   -4.4737   53.0895 H       1  ZINC000062882109    0.0900
     34 H34       -12.9535   -3.1375   54.2335 H       1  ZINC000062882109    0.1000
     35 H35       -13.5277   -3.0022   52.5541 H       1  ZINC000062882109    0.1000
     36 H36       -13.2208   -0.9350   53.5951 H       1  ZINC000062882109    0.1400
     37 H37       -12.9116    1.5017   53.6854 H       1  ZINC000062882109    0.1300
     38 H38       -10.7739    2.5037   52.9993 H       1  ZINC000062882109    0.1300
     39 H39       -10.4343    2.8578   51.0215 H       1  ZINC000062882109    0.0800
     40 H40        -9.3380    4.2586   50.9564 H       1  ZINC000062882109    0.0800
     41 H41        -8.9607    2.7891   50.0256 H       1  ZINC000062882109    0.0800
     42 H42        -6.4420    1.1957   51.7166 H       1  ZINC000062882109    0.4100
     43 H43        -4.7190    3.0385   53.8040 H       1  ZINC000062882109    0.1400
     44 H44        -2.3693    3.7470   53.6516 H       1  ZINC000062882109    0.1400
     45 H45         0.8060    3.8155   50.3452 H       1  ZINC000062882109    0.1300
     46 H46         0.0564    2.2052   50.4920 H       1  ZINC000062882109    0.0700
     47 H47        -1.1007    4.5858   48.9554 H       1  ZINC000062882109    0.0900
     48 H48        -0.3580    3.1336   48.2315 H       1  ZINC000062882109    0.1300
     49 H49        -3.7572    1.9223   45.6591 H       1  ZINC000062882109    0.0600
     50 H50        -2.2878    1.3304   44.8474 H       1  ZINC000062882109    0.0700
     51 H51        -3.0555    0.3533   46.1218 H       1  ZINC000062882109    0.0700
     52 H52        -1.0323    3.9840   47.1364 H       1  ZINC000062882109    0.0700
     53 H53        -1.1063    3.4506   45.4400 H       1  ZINC000062882109    0.0800
     54 H54        -2.5756    4.0425   46.2517 H       1  ZINC000062882109    0.0600
     55 H55        -0.8873    0.2271   47.1687 H       1  ZINC000062882109    0.0700
     56 H56        -0.0317    1.4143   46.1554 H       1  ZINC000062882109    0.0800
     57 H57        -0.1391    1.6594   47.9151 H       1  ZINC000062882109    0.0700
     58 H58        -4.7176    2.1050   49.6321 H       1  ZINC000062882109    0.1800
     59 H59        -9.2123   -1.3746   52.1226 H       1  ZINC000062882109    0.1400
@<TRIPOS>BOND
     1     1     2    1
     2     1    33    1
     3     1    34    1
     4     1    35    1
     5     2     3    2
     6     2     4    1
     7     4    32   ar
     8     4     5   ar
     9     5     6   ar
    10     5    36    1
    11     6     7   ar
    12     6    37    1
    13     7     8   ar
    14     7    38    1
    15     8     9    1
    16     8    32   ar
    17     9    10    1
    18    10    11    1
    19    10    12    1
    20    10    13    1
    21    12    39    1
    22    12    40    1
    23    12    41    1
    24    13    14    2
    25    13    15   am
    26    15    16    1
    27    15    42    1
    28    16    31   ar
    29    16    17   ar
    30    17    18   ar
    31    17    43    1
    32    18    19   ar
    33    18    44    1
    34    19    30   ar
    35    19    20    1
    36    20    21    1
    37    21    22    1
    38    21    45    1
    39    21    46    1
    40    22    23    1
    41    22    47    1
    42    22    48    1
    43    23    24   am
    44    23    30    1
    45    24    25    2
    46    24    26    1
    47    26    27    1
    48    26    28    1
    49    26    29    1
    50    27    49    1
    51    27    50    1
    52    27    51    1
    53    28    52    1
    54    28    53    1
    55    28    54    1
    56    29    55    1
    57    29    56    1
    58    29    57    1
    59    30    31   ar
    60    31    58    1
    61    32    59    1
@<TRIPOS>SUBSTRUCTURE
     1 ZINC000062882109        1 TEMP              0 ****  ****    0 ROOT


##########                                Name:    ZINC000740930783
##########                DOCK_Rotatable_Bonds:                  11
##########                         Heavy_Atoms:                  27
##########                    Molecular_Weight:             413.257
##########                DOCK_Rotatable_Bonds:                  11
##########                       Formal_Charge:          -0.0100004
##########                     HBond_Acceptors:                   9
##########                        HBond_Donors:                   4
##########                         Heavy_Atoms:                  27
##########                          Grid_Score:          -35.164913
##########                     Grid_vdw_energy:          -34.208748
##########                      Grid_es_energy:           -0.956164
##########           Internal_energy_repulsive:           12.342506

@<TRIPOS>MOLECULE
ZINC000740930783
 45 46 1 0 0
SMALL
USER_CHARGES


@<TRIPOS>ATOM
      1 C1         -9.3764    0.4191   56.7981 C.3     1  ZINC000740930783    0.0200
      2 O2        -10.4902   -0.4295   57.0837 O.3     1  ZINC000740930783   -0.3000
      3 C3        -10.3246   -1.3564   58.0650 C.ar    1  ZINC000740930783    0.1200
      4 C4        -10.0296   -0.9534   59.3529 C.ar    1  ZINC000740930783   -0.1400
      5 C5         -9.8605   -1.9080   60.3594 C.ar    1  ZINC000740930783   -0.0800
      6 C6         -9.5456   -1.4822   61.7373 C.2     1  ZINC000740930783    0.5600
      7 O7         -8.8586   -2.1883   62.4497 O.2     1  ZINC000740930783   -0.5300
      8 N8        -10.0198   -0.3107   62.2055 N.am    1  ZINC000740930783   -0.7200
      9 C9         -9.7087    0.1111   63.5736 C.3     1  ZINC000740930783    0.0900
     10 C10       -10.8798    0.9186   64.1371 C.3     1  ZINC000740930783    0.1400
     11 H11       -11.7862    0.3141   64.1060 H       1  ZINC000740930783    0.1200
     12 O12       -11.0667    2.0980   63.3521 O.3     1  ZINC000740930783   -0.5500
     13 C13       -10.5830    1.3059   65.5629 C.ar    1  ZINC000740930783   -0.1100
     14 C14        -9.2769    1.5086   65.9664 C.ar    1  ZINC000740930783   -0.1000
     15 C15        -9.0045    1.8640   67.2745 C.ar    1  ZINC000740930783   -0.1100
     16 C16       -10.0381    2.0161   68.1794 C.ar    1  ZINC000740930783   -0.1000
     17 C17       -11.3450    1.8135   67.7771 C.ar    1  ZINC000740930783   -0.1100
     18 C18       -11.6186    1.4640   66.4669 C.ar    1  ZINC000740930783   -0.0300
     19 Cl19      -13.2595    1.2094   65.9606 Cl      1  ZINC000740930783   -0.0600
     20 C20        -9.9905   -3.2659   60.0592 C.ar    1  ZINC000740930783   -0.1000
     21 C21       -10.2851   -3.6620   58.7712 C.ar    1  ZINC000740930783   -0.0200
     22 Cl22      -10.4469   -5.3500   58.3996 Cl      1  ZINC000740930783   -0.0300
     23 C23       -10.4583   -2.7127   57.7724 C.ar    1  ZINC000740930783    0.0900
     24 O24       -10.7485   -3.1072   56.5055 O.3     1  ZINC000740930783   -0.2900
     25 C25       -12.1185   -3.0448   56.1042 C.3     1  ZINC000740930783    0.0400
     26 C26       -12.2987   -3.8003   54.8128 C.2     1  ZINC000740930783    0.5200
     27 N27       -11.3077   -3.8198   53.8995 N.am    1  ZINC000740930783   -0.8500
     28 O28       -13.3354   -4.3908   54.5952 O.2     1  ZINC000740930783   -0.5100
     29 H29        -9.1109    0.9833   57.6921 H       1  ZINC000740930783    0.0600
     30 H30        -8.5269   -0.1888   56.4866 H       1  ZINC000740930783    0.0600
     31 H31        -9.6418    1.1100   55.9979 H       1  ZINC000740930783    0.1100
     32 H32        -9.9294    0.0973   59.5814 H       1  ZINC000740930783    0.1600
     33 H33       -10.5669    0.2532   61.6367 H       1  ZINC000740930783    0.4100
     34 H34        -9.5410   -0.7681   64.1956 H       1  ZINC000740930783    0.0900
     35 H35        -8.8107    0.7289   63.5679 H       1  ZINC000740930783    0.0800
     36 H36       -10.2966    2.6826   63.3311 H       1  ZINC000740930783    0.3800
     37 H37        -8.4689    1.3892   65.2599 H       1  ZINC000740930783    0.1300
     38 H38        -7.9836    2.0224   67.5894 H       1  ZINC000740930783    0.1300
     39 H39        -9.8246    2.2930   69.2014 H       1  ZINC000740930783    0.1400
     40 H40       -12.1525    1.9324   68.4843 H       1  ZINC000740930783    0.1400
     41 H41        -9.8599   -4.0056   60.8352 H       1  ZINC000740930783    0.1500
     42 H42       -12.7441   -3.4918   56.8769 H       1  ZINC000740930783    0.0900
     43 H43       -12.4078   -2.0039   55.9596 H       1  ZINC000740930783    0.0900
     44 H44       -11.4232   -4.3070   53.0687 H       1  ZINC000740930783    0.4000
     45 H45       -10.4789   -3.3464   54.0730 H       1  ZINC000740930783    0.4100
@<TRIPOS>BOND
     1     1     2    1
     2     1    29    1
     3     1    30    1
     4     1    31    1
     5     2     3    1
     6     3    23   ar
     7     3     4   ar
     8     4     5   ar
     9     4    32    1
    10     5     6    1
    11     5    20   ar
    12     6     7    2
    13     6     8   am
    14     8     9    1
    15     8    33    1
    16     9    10    1
    17     9    34    1
    18     9    35    1
    19    10    11    1
    20    10    12    1
    21    10    13    1
    22    12    36    1
    23    13    18   ar
    24    13    14   ar
    25    14    15   ar
    26    14    37    1
    27    15    16   ar
    28    15    38    1
    29    16    17   ar
    30    16    39    1
    31    17    18   ar
    32    17    40    1
    33    18    19    1
    34    20    21   ar
    35    20    41    1
    36    21    22    1
    37    21    23   ar
    38    23    24    1
    39    24    25    1
    40    25    26    1
    41    25    42    1
    42    25    43    1
    43    26    27   am
    44    26    28    2
    45    27    44    1
    46    27    45    1
@<TRIPOS>SUBSTRUCTURE
     1 ZINC000740930783        1 TEMP              0 ****  ****    0 ROOT


##########                                Name:    ZINC000504243286
##########                DOCK_Rotatable_Bonds:                   7
##########                         Heavy_Atoms:                  29
##########                    Molecular_Weight:             408.337
##########                DOCK_Rotatable_Bonds:                   7
##########                       Formal_Charge:           0.0299994
##########                     HBond_Acceptors:                  11
##########                        HBond_Donors:                   3
##########                         Heavy_Atoms:                  29
##########                          Grid_Score:          -35.110748
##########                     Grid_vdw_energy:          -34.866718
##########                      Grid_es_energy:           -0.244030
##########           Internal_energy_repulsive:           11.772911

@<TRIPOS>MOLECULE
ZINC000504243286
 44 46 1 0 0
SMALL
USER_CHARGES


@<TRIPOS>ATOM
      1 O1        -14.0687   -5.4659   57.9298 O.2     1  ZINC000504243286   -0.5200
      2 C2        -13.6090   -5.2882   56.8215 C.2     1  ZINC000504243286    0.5200
      3 C3        -14.3553   -5.7805   55.6084 C.3     1  ZINC000504243286   -0.1600
      4 C4        -14.9841   -4.5915   54.8792 C.3     1  ZINC000504243286    0.1300
      5 N5        -13.9585   -3.9052   54.0895 N.pl3   1  ZINC000504243286   -0.7200
      6 C6        -14.3335   -3.0183   53.0778 C.ar    1  ZINC000504243286    0.3100
      7 C7        -15.6670   -2.6620   52.9235 C.ar    1  ZINC000504243286   -0.1900
      8 C8        -16.0343   -1.7842   51.9223 C.ar    1  ZINC000504243286    0.0200
      9 C9        -15.0762   -1.2603   51.0741 C.ar    1  ZINC000504243286   -0.2400
     10 C10       -15.4806   -0.3025   49.9833 C.3     1  ZINC000504243286    0.5200
     11 F11       -16.7835   -0.5945   49.5657 F       1  ZINC000504243286   -0.1700
     12 F12       -15.4298    1.0078   50.4707 F       1  ZINC000504243286   -0.1700
     13 F13       -14.6039   -0.4317   48.9007 F       1  ZINC000504243286   -0.1700
     14 C14       -13.7474   -1.6130   51.2251 C.ar    1  ZINC000504243286    0.0400
     15 C15       -13.3726   -2.4859   52.2272 C.ar    1  ZINC000504243286   -0.1200
     16 N16       -11.9504   -2.8627   52.3879 N.pl3   1  ZINC000504243286    0.0400
     17 O17       -11.4820   -3.0118   53.5023 O.2     1  ZINC000504243286   -0.1700
     18 O18       -11.2483   -3.0238   51.4058 O.2     1  ZINC000504243286   -0.1400
     19 N19       -12.4334   -4.6456   56.6747 N.am    1  ZINC000504243286   -0.6700
     20 C20       -11.7397   -4.1880   57.8022 C.ar    1  ZINC000504243286    0.1200
     21 C21       -10.6066   -4.8582   58.2436 C.ar    1  ZINC000504243286   -0.1000
     22 C22        -9.9211   -4.4100   59.3531 C.ar    1  ZINC000504243286   -0.1200
     23 C23       -10.3611   -3.2806   60.0405 C.ar    1  ZINC000504243286    0.1300
     24 N24        -9.8463   -2.6437   61.1723 N.am    1  ZINC000504243286   -0.6600
     25 C25       -10.5728   -1.5703   61.5262 C.2     1  ZINC000504243286    0.5300
     26 O26       -10.3579   -0.8327   62.4648 O.2     1  ZINC000504243286   -0.5000
     27 C27       -11.7096   -1.4540   60.5333 C.3     1  ZINC000504243286   -0.1200
     28 C28       -11.4961   -2.6165   59.5913 C.ar    1  ZINC000504243286   -0.1200
     29 C29       -12.1791   -3.0575   58.4814 C.ar    1  ZINC000504243286   -0.0600
     30 H30       -13.6638   -6.2927   54.9395 H       1  ZINC000504243286    0.1100
     31 H31       -15.1389   -6.4715   55.9196 H       1  ZINC000504243286    0.1100
     32 H32       -15.7742   -4.9472   54.2180 H       1  ZINC000504243286    0.0800
     33 H33       -15.4048   -3.8992   55.6085 H       1  ZINC000504243286    0.0900
     34 H34       -13.0192   -4.0668   54.2692 H       1  ZINC000504243286    0.4100
     35 H35       -16.4159   -3.0710   53.5854 H       1  ZINC000504243286    0.1600
     36 H36       -17.0712   -1.5070   51.8015 H       1  ZINC000504243286    0.1600
     37 H37       -13.0014   -1.2020   50.5609 H       1  ZINC000504243286    0.1600
     38 H38       -12.0678   -4.4999   55.7881 H       1  ZINC000504243286    0.4200
     39 H39       -10.2606   -5.7346   57.7158 H       1  ZINC000504243286    0.1400
     40 H40        -9.0405   -4.9362   59.6906 H       1  ZINC000504243286    0.1300
     41 H41        -9.0553   -2.9421   61.6480 H       1  ZINC000504243286    0.4100
     42 H42       -12.6702   -1.5449   61.0404 H       1  ZINC000504243286    0.1300
     43 H43       -11.6497   -0.5090   59.9934 H       1  ZINC000504243286    0.1300
     44 H44       -13.0569   -2.5285   58.1406 H       1  ZINC000504243286    0.1500
@<TRIPOS>BOND
     1     1     2    2
     2     2     3    1
     3     2    19   am
     4     3     4    1
     5     3    30    1
     6     3    31    1
     7     4     5    1
     8     4    32    1
     9     4    33    1
    10     5     6    1
    11     5    34    1
    12     6    15   ar
    13     6     7   ar
    14     7     8   ar
    15     7    35    1
    16     8     9   ar
    17     8    36    1
    18     9    10    1
    19     9    14   ar
    20    10    11    1
    21    10    12    1
    22    10    13    1
    23    14    15   ar
    24    14    37    1
    25    15    16    1
    26    16    17    2
    27    16    18    2
    28    19    20    1
    29    19    38    1
    30    20    29   ar
    31    20    21   ar
    32    21    22   ar
    33    21    39    1
    34    22    23   ar
    35    22    40    1
    36    23    28   ar
    37    23    24    1
    38    24    25   am
    39    24    41    1
    40    25    26    2
    41    25    27    1
    42    27    28    1
    43    27    42    1
    44    27    43    1
    45    28    29   ar
    46    29    44    1
@<TRIPOS>SUBSTRUCTURE
     1 ZINC000504243286        1 TEMP              0 ****  ****    0 ROOT


##########                                Name:    ZINC000970996691
##########                DOCK_Rotatable_Bonds:                   7
##########                         Heavy_Atoms:                  24
##########                    Molecular_Weight:             334.462
##########                DOCK_Rotatable_Bonds:                   7
##########                       Formal_Charge:          -0.0199999
##########                     HBond_Acceptors:                   6
##########                        HBond_Donors:                   0
##########                         Heavy_Atoms:                  24
##########                          Grid_Score:          -35.107315
##########                     Grid_vdw_energy:          -35.312298
##########                      Grid_es_energy:            0.204984
##########           Internal_energy_repulsive:           16.891350

@<TRIPOS>MOLECULE
ZINC000970996691
 54 56 1 0 0
SMALL
USER_CHARGES


@<TRIPOS>ATOM
      1 C1         -8.7617   -0.6446   67.2759 C.3     1  ZINC000970996691   -0.1500
      2 C2         -9.6843    0.5435   66.9970 C.3     1  ZINC000970996691   -0.1200
      3 C3         -9.0774    1.4125   65.8936 C.3     1  ZINC000970996691   -0.0300
      4 C4         -9.3973    0.8126   64.5486 C.2     1  ZINC000970996691    0.1800
      5 N5         -9.9495    1.4275   63.5306 N.2     1  ZINC000970996691   -0.4700
      6 C6        -10.0397    0.5051   62.5560 C.2     1  ZINC000970996691    0.1800
      7 C7        -10.6076    0.7177   61.1764 C.3     1  ZINC000970996691    0.1500
      8 N8        -11.4910   -0.4044   60.8323 N.3     1  ZINC000970996691   -0.5200
      9 C9        -12.7992    0.0781   60.3701 C.3     1  ZINC000970996691    0.0200
     10 C10       -10.8670   -1.2769   59.8285 C.3     1  ZINC000970996691    0.0700
     11 H11       -10.3583   -0.6887   59.0648 H       1  ZINC000970996691    0.0600
     12 C12        -9.8932   -2.2840   60.4953 C.3     1  ZINC000970996691   -0.1300
     13 C13        -9.8890   -3.4679   59.5054 C.3     1  ZINC000970996691    0.1000
     14 N14       -11.1302   -3.3859   58.7216 N.am    1  ZINC000970996691   -0.6200
     15 C15       -11.4940   -4.2299   57.7357 C.2     1  ZINC000970996691    0.5300
     16 O16       -10.7698   -5.1534   57.4301 O.2     1  ZINC000970996691   -0.5300
     17 C17       -12.8006   -4.0257   57.0132 C.3     1  ZINC000970996691   -0.1000
     18 C18       -12.5519   -3.2482   55.7192 C.3     1  ZINC000970996691   -0.1100
     19 C19       -13.8785   -3.0410   54.9857 C.3     1  ZINC000970996691   -0.1200
     20 C20       -14.4950   -4.4011   54.6528 C.3     1  ZINC000970996691   -0.1200
     21 C21       -14.7437   -5.1788   55.9468 C.3     1  ZINC000970996691   -0.1200
     22 C22       -13.4171   -5.3860   56.6803 C.3     1  ZINC000970996691   -0.1000
     23 C23       -11.9119   -2.2276   59.1928 C.3     1  ZINC000970996691    0.1200
     24 N24        -9.5469   -0.6032   63.0224 N.2     1  ZINC000970996691   -0.3800
     25 O25        -9.1668   -0.4463   64.1636 O.3     1  ZINC000970996691    0.0800
     26 H26        -8.6476   -1.2371   66.3682 H       1  ZINC000970996691    0.0600
     27 H27        -7.7859   -0.2794   67.5965 H       1  ZINC000970996691    0.0600
     28 H28        -9.1940   -1.2638   68.0620 H       1  ZINC000970996691    0.0600
     29 H29       -10.6601    0.1783   66.6764 H       1  ZINC000970996691    0.0700
     30 H30        -9.7984    1.1360   67.9047 H       1  ZINC000970996691    0.0700
     31 H31        -9.4952    2.4176   65.9517 H       1  ZINC000970996691    0.1100
     32 H32        -7.9962    1.4604   66.0222 H       1  ZINC000970996691    0.1000
     33 H33       -11.1763    1.6473   61.1569 H       1  ZINC000970996691    0.0700
     34 H34        -9.7938    0.7745   60.4534 H       1  ZINC000970996691    0.1100
     35 H35       -12.6650    0.7012   59.4859 H       1  ZINC000970996691    0.0300
     36 H36       -13.4334   -0.7729   60.1220 H       1  ZINC000970996691    0.0800
     37 H37       -13.2699    0.6642   61.1596 H       1  ZINC000970996691    0.0700
     38 H38        -8.8959   -1.8537   60.5860 H       1  ZINC000970996691    0.0800
     39 H39       -10.2694   -2.5970   61.4693 H       1  ZINC000970996691    0.0900
     40 H40        -9.0267   -3.3942   58.8429 H       1  ZINC000970996691    0.0700
     41 H41        -9.8585   -4.4095   60.0537 H       1  ZINC000970996691    0.0700
     42 H42       -13.4837   -3.4632   57.6496 H       1  ZINC000970996691    0.0900
     43 H43       -12.1127   -2.2791   55.9564 H       1  ZINC000970996691    0.0700
     44 H44       -11.8688   -3.8107   55.0829 H       1  ZINC000970996691    0.0700
     45 H45       -14.5616   -2.4785   55.6221 H       1  ZINC000970996691    0.0600
     46 H46       -13.7013   -2.4870   54.0639 H       1  ZINC000970996691    0.0700
     47 H47       -15.4401   -4.2536   54.1302 H       1  ZINC000970996691    0.0600
     48 H48       -13.8118   -4.9637   54.0165 H       1  ZINC000970996691    0.0600
     49 H49       -15.4268   -4.6163   56.5831 H       1  ZINC000970996691    0.0600
     50 H50       -15.1830   -6.1478   55.7096 H       1  ZINC000970996691    0.0700
     51 H51       -12.7340   -5.9485   56.0440 H       1  ZINC000970996691    0.0800
     52 H52       -13.5943   -5.9400   57.6022 H       1  ZINC000970996691    0.0600
     53 H53       -12.6422   -2.5409   59.9389 H       1  ZINC000970996691    0.0800
     54 H54       -12.4099   -1.7398   58.3548 H       1  ZINC000970996691    0.0800
@<TRIPOS>BOND
     1     1     2    1
     2     1    26    1
     3     1    27    1
     4     1    28    1
     5     2     3    1
     6     2    29    1
     7     2    30    1
     8     3     4    1
     9     3    31    1
    10     3    32    1
    11     4    25    1
    12     4     5    2
    13     5     6    1
    14     6     7    1
    15     6    24    2
    16     7     8    1
    17     7    33    1
    18     7    34    1
    19     8     9    1
    20     8    10    1
    21     9    35    1
    22     9    36    1
    23     9    37    1
    24    10    11    1
    25    10    23    1
    26    10    12    1
    27    12    13    1
    28    12    38    1
    29    12    39    1
    30    13    14    1
    31    13    40    1
    32    13    41    1
    33    14    15   am
    34    14    23    1
    35    15    16    2
    36    15    17    1
    37    17    22    1
    38    17    18    1
    39    17    42    1
    40    18    19    1
    41    18    43    1
    42    18    44    1
    43    19    20    1
    44    19    45    1
    45    19    46    1
    46    20    21    1
    47    20    47    1
    48    20    48    1
    49    21    22    1
    50    21    49    1
    51    21    50    1
    52    22    51    1
    53    22    52    1
    54    23    53    1
    55    23    54    1
    56    24    25    1
@<TRIPOS>SUBSTRUCTURE
     1 ZINC000970996691        1 TEMP              0 ****  ****    0 ROOT


##########                                Name:    ZINC000110375116
##########                DOCK_Rotatable_Bonds:                  10
##########                         Heavy_Atoms:                  27
##########                    Molecular_Weight:             396.511
##########                DOCK_Rotatable_Bonds:                  10
##########                       Formal_Charge:        -2.23517e-07
##########                     HBond_Acceptors:                   9
##########                        HBond_Donors:                   0
##########                         Heavy_Atoms:                  27
##########                          Grid_Score:          -35.086193
##########                     Grid_vdw_energy:          -34.258484
##########                      Grid_es_energy:           -0.827710
##########           Internal_energy_repulsive:           36.594692

@<TRIPOS>MOLECULE
ZINC000110375116
 55 56 1 0 0
SMALL
USER_CHARGES


@<TRIPOS>ATOM
      1 C1         -6.1602    2.0439   68.2513 C.3     1  ZINC000110375116   -0.1700
      2 C2         -7.5730    1.4697   68.3756 C.3     1  ZINC000110375116    0.1000
      3 N3         -8.2429    1.5350   67.0744 N.am    1  ZINC000110375116   -0.6200
      4 C4         -7.9013    2.5992   66.1273 C.3     1  ZINC000110375116    0.1100
      5 C5         -8.8090    3.8070   66.3682 C.3     1  ZINC000110375116   -0.1700
      6 C6         -9.1735    0.6162   66.7487 C.2     1  ZINC000110375116    0.5100
      7 O7         -9.4574   -0.2639   67.5334 O.2     1  ZINC000110375116   -0.5300
      8 C8         -9.8613    0.6824   65.4094 C.3     1  ZINC000110375116   -0.1400
      9 C9         -9.1736   -0.2760   64.4350 C.3     1  ZINC000110375116   -0.0900
     10 C10       -10.0048   -0.3853   63.1551 C.3     1  ZINC000110375116   -0.1400
     11 C11        -9.5470   -1.5804   62.3594 C.2     1  ZINC000110375116    0.5200
     12 O12        -8.5557   -2.1913   62.6987 O.2     1  ZINC000110375116   -0.5300
     13 N13       -10.2392   -1.9704   61.2706 N.am    1  ZINC000110375116   -0.6200
     14 C14       -11.4396   -1.2371   60.8452 C.3     1  ZINC000110375116    0.0900
     15 C15       -11.2588   -0.8063   59.3844 C.3     1  ZINC000110375116    0.1000
     16 N16       -10.8262   -1.9721   58.6011 N.am    1  ZINC000110375116   -1.0000
     17 S17       -11.6761   -2.4507   57.2628 S.o2    1  ZINC000110375116    2.7000
     18 O18       -11.7844   -1.3071   56.4262 O.2     1  ZINC000110375116   -0.9400
     19 O19       -11.0947   -3.6745   56.8347 O.2     1  ZINC000110375116   -0.9500
     20 C20       -13.3116   -2.8355   57.7935 C.ar    1  ZINC000110375116   -0.7400
     21 C21       -14.2594   -1.8331   57.9297 C.ar    1  ZINC000110375116    0.0200
     22 C22       -15.5340   -2.1825   58.3497 C.ar    1  ZINC000110375116   -0.1900
     23 C23       -15.8150   -3.5089   58.6166 C.ar    1  ZINC000110375116    0.1500
     24 N24       -14.8880   -4.4364   58.4760 N.ar    1  ZINC000110375116   -0.4900
     25 C25       -13.6674   -4.1415   58.0737 C.ar    1  ZINC000110375116    0.2000
     26 C26        -9.6258   -2.7054   59.0265 C.3     1  ZINC000110375116    0.1000
     27 C27        -9.8034   -3.1329   60.4841 C.3     1  ZINC000110375116    0.1000
     28 H28        -5.6617    1.9953   69.2195 H       1  ZINC000110375116    0.0700
     29 H29        -5.5951    1.4635   67.5221 H       1  ZINC000110375116    0.0600
     30 H30        -6.2174    3.0820   67.9238 H       1  ZINC000110375116    0.0600
     31 H31        -7.5157    0.4317   68.7032 H       1  ZINC000110375116    0.0800
     32 H32        -8.1381    2.0502   69.1049 H       1  ZINC000110375116    0.0800
     33 H33        -6.8612    2.8922   66.2696 H       1  ZINC000110375116    0.0800
     34 H34        -8.0406    2.2374   65.1086 H       1  ZINC000110375116    0.0800
     35 H35        -8.5549    4.5988   65.6636 H       1  ZINC000110375116    0.0700
     36 H36        -9.8492    3.5140   66.2258 H       1  ZINC000110375116    0.0500
     37 H37        -8.6696    4.1687   67.3869 H       1  ZINC000110375116    0.0600
     38 H38       -10.9068    0.3962   65.5233 H       1  ZINC000110375116    0.0900
     39 H39        -9.8031    1.6992   65.0209 H       1  ZINC000110375116    0.0900
     40 H40        -8.1809    0.1032   64.1923 H       1  ZINC000110375116    0.0800
     41 H41        -9.0842   -1.2599   64.8953 H       1  ZINC000110375116    0.0800
     42 H42       -11.0570   -0.5027   63.4141 H       1  ZINC000110375116    0.1000
     43 H43        -9.8758    0.5186   62.5598 H       1  ZINC000110375116    0.1000
     44 H44       -12.3128   -1.8840   60.9304 H       1  ZINC000110375116    0.0800
     45 H45       -11.5715   -0.3558   61.4729 H       1  ZINC000110375116    0.1000
     46 H46       -12.2052   -0.4334   58.9931 H       1  ZINC000110375116    0.1100
     47 H47       -10.5019   -0.0242   59.3246 H       1  ZINC000110375116    0.0800
     48 H48       -14.0110   -0.8044   57.7142 H       1  ZINC000110375116    0.1500
     49 H49       -16.2972   -1.4276   58.4671 H       1  ZINC000110375116    0.1500
     50 H50       -16.8050   -3.7893   58.9445 H       1  ZINC000110375116    0.1700
     51 H51       -12.9348   -4.9281   57.9702 H       1  ZINC000110375116    0.1700
     52 H52        -9.4938   -3.5868   58.3988 H       1  ZINC000110375116    0.1100
     53 H53        -8.7526   -2.0586   58.9413 H       1  ZINC000110375116    0.0800
     54 H54        -8.8562   -3.5055   60.8740 H       1  ZINC000110375116    0.1100
     55 H55       -10.5605   -3.9146   60.5464 H       1  ZINC000110375116    0.0800
@<TRIPOS>BOND
     1     1     2    1
     2     1    28    1
     3     1    29    1
     4     1    30    1
     5     2     3    1
     6     2    31    1
     7     2    32    1
     8     3     4    1
     9     3     6   am
    10     4     5    1
    11     4    33    1
    12     4    34    1
    13     5    35    1
    14     5    36    1
    15     5    37    1
    16     6     7    2
    17     6     8    1
    18     8     9    1
    19     8    38    1
    20     8    39    1
    21     9    10    1
    22     9    40    1
    23     9    41    1
    24    10    11    1
    25    10    42    1
    26    10    43    1
    27    11    12    2
    28    11    13   am
    29    13    27    1
    30    13    14    1
    31    14    15    1
    32    14    44    1
    33    14    45    1
    34    15    16    1
    35    15    46    1
    36    15    47    1
    37    16    17   am
    38    16    26    1
    39    17    18    2
    40    17    19    2
    41    17    20    1
    42    20    25   ar
    43    20    21   ar
    44    21    22   ar
    45    21    48    1
    46    22    23   ar
    47    22    49    1
    48    23    24   ar
    49    23    50    1
    50    24    25   ar
    51    25    51    1
    52    26    27    1
    53    26    52    1
    54    26    53    1
    55    27    54    1
    56    27    55    1
@<TRIPOS>SUBSTRUCTURE
     1 ZINC000110375116        1 TEMP              0 ****  ****    0 ROOT


##########                                Name:    ZINC000489403631
##########                DOCK_Rotatable_Bonds:                   7
##########                         Heavy_Atoms:                  28
##########                    Molecular_Weight:             381.391
##########                DOCK_Rotatable_Bonds:                   7
##########                       Formal_Charge:          -0.0300003
##########                     HBond_Acceptors:                   9
##########                        HBond_Donors:                   1
##########                         Heavy_Atoms:                  28
##########                          Grid_Score:          -35.065510
##########                     Grid_vdw_energy:          -34.963757
##########                      Grid_es_energy:           -0.101752
##########           Internal_energy_repulsive:           15.665528

@<TRIPOS>MOLECULE
ZINC000489403631
 47 49 1 0 0
SMALL
USER_CHARGES


@<TRIPOS>ATOM
      1 C1        -14.5811   -1.3764   53.8392 C.3     1  ZINC000489403631   -0.1100
      2 C2        -13.2027   -1.6288   53.2850 C.ar    1  ZINC000489403631   -0.0800
      3 C3        -12.3959   -0.5660   52.9309 C.ar    1  ZINC000489403631   -0.0900
      4 C4        -11.1256   -0.7987   52.4202 C.ar    1  ZINC000489403631    0.1200
      5 N5        -10.3064    0.2794   52.0611 N.am    1  ZINC000489403631   -0.6600
      6 C6         -9.7620    1.0594   53.0159 C.2     1  ZINC000489403631    0.5100
      7 O7         -9.9814    0.8280   54.1861 O.2     1  ZINC000489403631   -0.4600
      8 C8         -8.8807    2.2193   52.6295 C.3     1  ZINC000489403631    0.1700
      9 C9         -9.6688    3.1852   51.7423 C.3     1  ZINC000489403631   -0.1700
     10 C10        -8.4163    2.9494   53.8913 C.3     1  ZINC000489403631   -0.1700
     11 N11        -7.7143    1.7229   51.8952 N.pl3   1  ZINC000489403631   -0.3400
     12 C12        -6.5362    2.3646   51.7489 C.2     1  ZINC000489403631    0.1500
     13 C13        -5.7257    1.5749   51.0070 C.2     1  ZINC000489403631   -0.1900
     14 N14        -4.3362    1.8875   50.6039 N.pl3   1  ZINC000489403631    0.0700
     15 O15        -3.7089    1.0997   49.9188 O.2     1  ZINC000489403631   -0.1700
     16 O16        -3.8201    2.9327   50.9574 O.2     1  ZINC000489403631   -0.1600
     17 C17        -6.4327    0.4106   50.6889 C.2     1  ZINC000489403631    0.1000
     18 N18        -7.6227    0.4957   51.2260 N.2     1  ZINC000489403631   -0.2200
     19 C19       -10.6677   -2.1003   52.2661 C.ar    1  ZINC000489403631   -0.1100
     20 C20       -11.4757   -3.1627   52.6207 C.ar    1  ZINC000489403631   -0.1700
     21 C21       -12.7423   -2.9294   53.1361 C.ar    1  ZINC000489403631    0.1000
     22 O22       -13.5372   -3.9757   53.4850 O.3     1  ZINC000489403631   -0.2500
     23 C23       -13.3645   -4.5250   54.7140 C.ar    1  ZINC000489403631    0.1400
     24 C24       -12.3323   -4.1003   55.5475 C.ar    1  ZINC000489403631   -0.2000
     25 C25       -12.1902   -4.6837   56.7896 C.ar    1  ZINC000489403631    0.1200
     26 N26       -13.0164   -5.6315   57.1902 N.ar    1  ZINC000489403631   -0.4900
     27 C27       -14.0059   -6.0605   56.4297 C.ar    1  ZINC000489403631    0.1200
     28 C28       -14.2183   -5.5236   55.1765 C.ar    1  ZINC000489403631   -0.1800
     29 H29       -14.5258   -1.2873   54.9241 H       1  ZINC000489403631    0.0700
     30 H30       -14.9783   -0.4526   53.4185 H       1  ZINC000489403631    0.0700
     31 H31       -15.2363   -2.2067   53.5758 H       1  ZINC000489403631    0.0700
     32 H32       -12.7528    0.4463   53.0506 H       1  ZINC000489403631    0.1500
     33 H33       -10.1310    0.4645   51.1252 H       1  ZINC000489403631    0.4100
     34 H34       -10.5367    3.5545   52.2887 H       1  ZINC000489403631    0.1000
     35 H35        -9.0314    4.0240   51.4629 H       1  ZINC000489403631    0.0900
     36 H36        -9.9997    2.6650   50.8434 H       1  ZINC000489403631    0.0800
     37 H37        -7.8549    2.2613   54.5234 H       1  ZINC000489403631    0.0800
     38 H38        -7.7789    3.7882   53.6118 H       1  ZINC000489403631    0.0900
     39 H39        -9.2842    3.3187   54.4376 H       1  ZINC000489403631    0.0900
     40 H40        -6.2853    3.3348   52.1515 H       1  ZINC000489403631    0.2000
     41 H41        -6.0591   -0.4176   50.1052 H       1  ZINC000489403631    0.2100
     42 H42        -9.6801   -2.2819   51.8687 H       1  ZINC000489403631    0.1300
     43 H43       -11.1196   -4.1753   52.5009 H       1  ZINC000489403631    0.1300
     44 H44       -11.6525   -3.3254   55.2256 H       1  ZINC000489403631    0.1400
     45 H45       -11.3925   -4.3608   57.4423 H       1  ZINC000489403631    0.1600
     46 H46       -14.6601   -6.8386   56.7943 H       1  ZINC000489403631    0.1700
     47 H47       -15.0301   -5.8790   54.5592 H       1  ZINC000489403631    0.1500
@<TRIPOS>BOND
     1     1     2    1
     2     1    29    1
     3     1    30    1
     4     1    31    1
     5     2    21   ar
     6     2     3   ar
     7     3     4   ar
     8     3    32    1
     9     4     5    1
    10     4    19   ar
    11     5     6   am
    12     5    33    1
    13     6     7    2
    14     6     8    1
    15     8     9    1
    16     8    10    1
    17     8    11    1
    18     9    34    1
    19     9    35    1
    20     9    36    1
    21    10    37    1
    22    10    38    1
    23    10    39    1
    24    11    18    1
    25    11    12    1
    26    12    13    2
    27    12    40    1
    28    13    14    1
    29    13    17    1
    30    14    15    2
    31    14    16    2
    32    17    18    2
    33    17    41    1
    34    19    20   ar
    35    19    42    1
    36    20    21   ar
    37    20    43    1
    38    21    22    1
    39    22    23    1
    40    23    28   ar
    41    23    24   ar
    42    24    25   ar
    43    24    44    1
    44    25    26   ar
    45    25    45    1
    46    26    27   ar
    47    27    28   ar
    48    27    46    1
    49    28    47    1
@<TRIPOS>SUBSTRUCTURE
     1 ZINC000489403631        1 TEMP              0 ****  ****    0 ROOT


##########                                Name:    ZINC000991934963
##########                DOCK_Rotatable_Bonds:                   8
##########                         Heavy_Atoms:                  27
##########                    Molecular_Weight:             370.495
##########                DOCK_Rotatable_Bonds:                   8
##########                       Formal_Charge:          -0.0499997
##########                     HBond_Acceptors:                   6
##########                        HBond_Donors:                   1
##########                         Heavy_Atoms:                  27
##########                          Grid_Score:          -35.065441
##########                     Grid_vdw_energy:          -35.236958
##########                      Grid_es_energy:            0.171517
##########           Internal_energy_repulsive:           15.098907

@<TRIPOS>MOLECULE
ZINC000991934963
 57 61 1 0 0
SMALL
USER_CHARGES


@<TRIPOS>ATOM
      1 C1        -10.8331   -2.6239   52.3530 C.3     1  ZINC000991934963    0.0400
      2 O2        -11.8327   -1.9345   51.5996 O.3     1  ZINC000991934963   -0.2900
      3 C3        -13.1112   -2.3594   51.7407 C.ar    1  ZINC000991934963    0.5000
      4 N4        -13.9903   -2.0872   50.7901 N.ar    1  ZINC000991934963   -0.5700
      5 C5        -15.2470   -2.4873   50.8960 C.ar    1  ZINC000991934963    0.1900
      6 C6        -15.6371   -3.1990   52.0191 C.ar    1  ZINC000991934963   -0.2700
      7 C7        -14.6899   -3.4664   52.9952 C.ar    1  ZINC000991934963    0.2200
      8 C8        -15.0676   -4.2370   54.2339 C.3     1  ZINC000991934963    0.1000
      9 N9        -14.5495   -3.5419   55.4200 N.3     1  ZINC000991934963   -0.4900
     10 C10       -13.3212   -4.2186   55.9444 C.3     1  ZINC000991934963    0.0400
     11 C11       -13.5729   -4.4806   57.4625 C.3     1  ZINC000991934963   -0.1400
     12 C12       -14.6176   -3.4129   57.7807 C.3     1  ZINC000991934963    0.1700
     13 N13       -14.0279   -2.0783   57.9127 N.am    1  ZINC000991934963   -0.7000
     14 C14       -13.2881   -1.7727   58.9971 C.2     1  ZINC000991934963    0.5200
     15 O15       -13.1118   -2.6020   59.8643 O.2     1  ZINC000991934963   -0.5300
     16 C16       -12.6801   -0.4004   59.1321 C.3     1  ZINC000991934963   -0.1100
     17 C17       -11.1947   -0.5321   59.4744 C.3     1  ZINC000991934963   -0.1300
     18 H18       -10.9249   -0.2827   60.5007 H       1  ZINC000991934963    0.1200
     19 C19       -10.1840   -0.1948   58.3765 C.3     1  ZINC000991934963   -0.1700
     20 C20       -10.4083   -1.6516   58.7895 C.3     1  ZINC000991934963   -0.1200
     21 H21       -10.9490   -2.2941   58.0946 H       1  ZINC000991934963    0.1000
     22 C22        -9.3029   -2.3353   59.5967 C.3     1  ZINC000991934963   -0.1200
     23 C23        -9.6166   -2.7126   61.0458 C.3     1  ZINC000991934963   -0.1800
     24 C24        -9.5106   -3.8025   59.9774 C.3     1  ZINC000991934963   -0.1800
     25 C25       -15.6875   -3.6923   58.8307 C.3     1  ZINC000991934963   -0.1200
     26 C26       -16.9001   -2.8642   58.3025 C.3     1  ZINC000991934963   -0.1200
     27 C27       -16.6908   -2.7354   56.7631 C.3     1  ZINC000991934963   -0.1000
     28 C28       -15.4926   -3.5787   56.4853 C.3     1  ZINC000991934963    0.0500
     29 H29       -15.8339   -4.6125   56.5397 H       1  ZINC000991934963    0.0400
     30 N30       -13.4491   -3.0414   52.8232 N.ar    1  ZINC000991934963   -0.5000
     31 H31       -10.8250   -3.6761   52.0686 H       1  ZINC000991934963    0.0600
     32 H32        -9.8566   -2.1847   52.1485 H       1  ZINC000991934963    0.1100
     33 H33       -11.0551   -2.5367   53.4166 H       1  ZINC000991934963    0.0600
     34 H34       -15.9601   -2.2616   50.1168 H       1  ZINC000991934963    0.1700
     35 H35       -16.6565   -3.5375   52.1317 H       1  ZINC000991934963    0.1500
     36 H36       -16.1533   -4.3088   54.3003 H       1  ZINC000991934963    0.1000
     37 H37       -14.6397   -5.2381   54.1837 H       1  ZINC000991934963    0.0600
     38 H38       -13.1633   -5.1629   55.4233 H       1  ZINC000991934963    0.0600
     39 H39       -12.4539   -3.5708   55.8158 H       1  ZINC000991934963    0.0800
     40 H40       -13.9730   -5.4812   57.6263 H       1  ZINC000991934963    0.0800
     41 H41       -12.6637   -4.3243   58.0431 H       1  ZINC000991934963    0.0900
     42 H42       -14.1699   -1.4146   57.2197 H       1  ZINC000991934963    0.4000
     43 H43       -12.7896    0.1396   58.1916 H       1  ZINC000991934963    0.1000
     44 H44       -13.1889    0.1460   59.9261 H       1  ZINC000991934963    0.0900
     45 H45       -10.5773    0.1209   57.4102 H       1  ZINC000991934963    0.0900
     46 H46        -9.2491    0.2762   58.6804 H       1  ZINC000991934963    0.1000
     47 H47        -8.2867   -2.0134   59.3687 H       1  ZINC000991934963    0.1000
     48 H48        -8.8068   -2.6389   61.7717 H       1  ZINC000991934963    0.0900
     49 H49       -10.6106   -2.4737   61.4242 H       1  ZINC000991934963    0.0900
     50 H50       -10.4347   -4.2808   59.6528 H       1  ZINC000991934963    0.0900
     51 H51        -8.6310   -4.4459   60.0003 H       1  ZINC000991934963    0.0900
     52 H52       -15.9291   -4.7546   58.8645 H       1  ZINC000991934963    0.0800
     53 H53       -15.3715   -3.3344   59.8107 H       1  ZINC000991934963    0.0800
     54 H54       -17.8328   -3.3879   58.5123 H       1  ZINC000991934963    0.0700
     55 H55       -16.9107   -1.8769   58.7642 H       1  ZINC000991934963    0.0700
     56 H56       -17.5591   -3.1179   56.2267 H       1  ZINC000991934963    0.0700
     57 H57       -16.4988   -1.6979   56.4898 H       1  ZINC000991934963    0.0700
@<TRIPOS>BOND
     1     1     2    1
     2     1    31    1
     3     1    32    1
     4     1    33    1
     5     2     3    1
     6     3    30   ar
     7     3     4   ar
     8     4     5   ar
     9     5     6   ar
    10     5    34    1
    11     6     7   ar
    12     6    35    1
    13     7     8    1
    14     7    30   ar
    15     8     9    1
    16     8    36    1
    17     8    37    1
    18     9    28    1
    19     9    10    1
    20    10    11    1
    21    10    38    1
    22    10    39    1
    23    11    12    1
    24    11    40    1
    25    11    41    1
    26    12    28    1
    27    12    13    1
    28    12    25    1
    29    13    14   am
    30    13    42    1
    31    14    15    2
    32    14    16    1
    33    16    17    1
    34    16    43    1
    35    16    44    1
    36    17    18    1
    37    17    20    1
    38    17    19    1
    39    19    20    1
    40    19    45    1
    41    19    46    1
    42    20    21    1
    43    20    22    1
    44    22    24    1
    45    22    23    1
    46    22    47    1
    47    23    24    1
    48    23    48    1
    49    23    49    1
    50    24    50    1
    51    24    51    1
    52    25    26    1
    53    25    52    1
    54    25    53    1
    55    26    27    1
    56    26    54    1
    57    26    55    1
    58    27    28    1
    59    27    56    1
    60    27    57    1
    61    28    29    1
@<TRIPOS>SUBSTRUCTURE
     1 ZINC000991934963        1 TEMP              0 ****  ****    0 ROOT


##########                                Name:    ZINC000532153088
##########                DOCK_Rotatable_Bonds:                  11
##########                         Heavy_Atoms:                  29
##########                    Molecular_Weight:             402.484
##########                DOCK_Rotatable_Bonds:                  11
##########                       Formal_Charge:          -0.0200009
##########                     HBond_Acceptors:                   6
##########                        HBond_Donors:                   1
##########                         Heavy_Atoms:                  29
##########                          Grid_Score:          -35.042046
##########                     Grid_vdw_energy:          -35.336769
##########                      Grid_es_energy:            0.294723
##########           Internal_energy_repulsive:           21.350849

@<TRIPOS>MOLECULE
ZINC000532153088
 57 59 1 0 0
SMALL
USER_CHARGES


@<TRIPOS>ATOM
      1 C1        -17.2405   -3.8043   52.1425 C.3     1  ZINC000532153088   -0.1800
      2 C2        -17.0339   -2.3743   52.6458 C.3     1  ZINC000532153088    0.0800
      3 C3        -17.8245   -2.1698   53.9396 C.3     1  ZINC000532153088   -0.1500
      4 O4        -15.6446   -2.1535   52.8965 O.3     1  ZINC000532153088   -0.3800
      5 C5        -14.8128   -2.3200   51.7465 C.3     1  ZINC000532153088    0.1000
      6 C6        -13.3764   -2.0646   52.1243 C.ar    1  ZINC000532153088   -0.0700
      7 C7        -12.7504   -0.9024   51.7148 C.ar    1  ZINC000532153088   -0.1000
      8 C8        -11.4326   -0.6681   52.0615 C.ar    1  ZINC000532153088   -0.1100
      9 C9        -10.7415   -1.5957   52.8179 C.ar    1  ZINC000532153088   -0.1200
     10 C10       -11.3681   -2.7578   53.2283 C.ar    1  ZINC000532153088   -0.1000
     11 C11       -12.6867   -2.9901   52.8853 C.ar    1  ZINC000532153088   -0.1100
     12 C12       -13.3697   -4.2568   53.3326 C.3     1  ZINC000532153088    0.1600
     13 N13       -12.8888   -4.6262   54.6662 N.am    1  ZINC000532153088   -0.7300
     14 C14       -13.7355   -5.1746   55.5600 C.2     1  ZINC000532153088    0.5100
     15 O15       -14.8959   -5.3608   55.2608 O.2     1  ZINC000532153088   -0.5000
     16 C16       -13.2402   -5.5563   56.9312 C.3     1  ZINC000532153088    0.0300
     17 N17       -13.0967   -4.3478   57.7539 N.3     1  ZINC000532153088   -0.4800
     18 C18       -11.9204   -3.5689   57.3445 C.3     1  ZINC000532153088    0.1000
     19 C19       -11.2440   -3.0011   58.5656 C.ar    1  ZINC000532153088   -0.1300
     20 C20       -11.5281   -1.7126   58.9761 C.ar    1  ZINC000532153088   -0.0600
     21 C21       -10.9089   -1.1906   60.0963 C.ar    1  ZINC000532153088   -0.1700
     22 C22       -10.0031   -1.9584   60.8083 C.ar    1  ZINC000532153088    0.1300
     23 F23        -9.3983   -1.4481   61.9034 F       1  ZINC000532153088   -0.1300
     24 C24        -9.7178   -3.2494   60.3980 C.ar    1  ZINC000532153088   -0.2000
     25 C25       -10.3424   -3.7729   59.2794 C.ar    1  ZINC000532153088    0.1600
     26 F26       -10.0649   -5.0326   58.8778 F       1  ZINC000532153088   -0.1100
     27 C27       -14.3147   -3.5282   57.7025 C.3     1  ZINC000532153088    0.0200
     28 C28       -15.5695   -4.0846   58.3783 C.3     1  ZINC000532153088   -0.2200
     29 C29       -14.8115   -2.9180   59.0147 C.3     1  ZINC000532153088   -0.1700
     30 H30       -18.3002   -3.9727   51.9512 H       1  ZINC000532153088    0.0700
     31 H31       -16.6772   -3.9499   51.2207 H       1  ZINC000532153088    0.0600
     32 H32       -16.8910   -4.5090   52.8970 H       1  ZINC000532153088    0.0700
     33 H33       -17.3835   -1.6695   51.8913 H       1  ZINC000532153088    0.0600
     34 H34       -17.4750   -2.8746   54.6942 H       1  ZINC000532153088    0.0600
     35 H35       -17.6774   -1.1511   54.2982 H       1  ZINC000532153088    0.0600
     36 H36       -18.8843   -2.3382   53.7484 H       1  ZINC000532153088    0.0700
     37 H37       -14.9138   -3.3376   51.3692 H       1  ZINC000532153088    0.0600
     38 H38       -15.1162   -1.6141   50.9733 H       1  ZINC000532153088    0.0600
     39 H39       -13.2904   -0.1775   51.1238 H       1  ZINC000532153088    0.1300
     40 H40       -10.9432    0.2398   51.7409 H       1  ZINC000532153088    0.1200
     41 H41        -9.7120   -1.4130   53.0881 H       1  ZINC000532153088    0.1300
     42 H42       -10.8280   -3.4828   53.8191 H       1  ZINC000532153088    0.1300
     43 H43       -14.4473   -4.0959   53.3668 H       1  ZINC000532153088    0.0800
     44 H44       -13.1442   -5.0589   52.6300 H       1  ZINC000532153088    0.0800
     45 H45       -11.9609   -4.4761   54.9059 H       1  ZINC000532153088    0.4000
     46 H46       -13.9549   -6.2325   57.4004 H       1  ZINC000532153088    0.0700
     47 H47       -12.2739   -6.0529   56.8432 H       1  ZINC000532153088    0.1100
     48 H48       -11.2239   -4.2158   56.8112 H       1  ZINC000532153088    0.0900
     49 H49       -12.2333   -2.7547   56.6908 H       1  ZINC000532153088    0.0500
     50 H50       -12.2342   -1.1127   58.4212 H       1  ZINC000532153088    0.1400
     51 H51       -11.1313   -0.1833   60.4161 H       1  ZINC000532153088    0.1400
     52 H52        -9.0114   -3.8492   60.9528 H       1  ZINC000532153088    0.1500
     53 H53       -14.4498   -2.9435   56.7927 H       1  ZINC000532153088    0.1200
     54 H54       -16.5307   -3.8661   57.9129 H       1  ZINC000532153088    0.1000
     55 H55       -15.4913   -5.0588   58.8609 H       1  ZINC000532153088    0.1000
     56 H56       -14.2344   -3.1247   59.9162 H       1  ZINC000532153088    0.1000
     57 H57       -15.2738   -1.9320   58.9681 H       1  ZINC000532153088    0.1000
@<TRIPOS>BOND
     1     1     2    1
     2     1    30    1
     3     1    31    1
     4     1    32    1
     5     2     3    1
     6     2     4    1
     7     2    33    1
     8     3    34    1
     9     3    35    1
    10     3    36    1
    11     4     5    1
    12     5     6    1
    13     5    37    1
    14     5    38    1
    15     6    11   ar
    16     6     7   ar
    17     7     8   ar
    18     7    39    1
    19     8     9   ar
    20     8    40    1
    21     9    10   ar
    22     9    41    1
    23    10    11   ar
    24    10    42    1
    25    11    12    1
    26    12    13    1
    27    12    43    1
    28    12    44    1
    29    13    14   am
    30    13    45    1
    31    14    15    2
    32    14    16    1
    33    16    17    1
    34    16    46    1
    35    16    47    1
    36    17    18    1
    37    17    27    1
    38    18    19    1
    39    18    48    1
    40    18    49    1
    41    19    25   ar
    42    19    20   ar
    43    20    21   ar
    44    20    50    1
    45    21    22   ar
    46    21    51    1
    47    22    23    1
    48    22    24   ar
    49    24    25   ar
    50    24    52    1
    51    25    26    1
    52    27    29    1
    53    27    28    1
    54    27    53    1
    55    28    29    1
    56    28    54    1
    57    28    55    1
    58    29    56    1
    59    29    57    1
@<TRIPOS>SUBSTRUCTURE
     1 ZINC000532153088        1 TEMP              0 ****  ****    0 ROOT


##########                                Name:    ZINC001109404798
##########                DOCK_Rotatable_Bonds:                   7
##########                         Heavy_Atoms:                  25
##########                    Molecular_Weight:              360.48
##########                DOCK_Rotatable_Bonds:                   7
##########                       Formal_Charge:           0.0100002
##########                     HBond_Acceptors:                   7
##########                        HBond_Donors:                   1
##########                         Heavy_Atoms:                  25
##########                          Grid_Score:          -35.030109
##########                     Grid_vdw_energy:          -33.631660
##########                      Grid_es_energy:           -1.398450
##########           Internal_energy_repulsive:           25.139334

@<TRIPOS>MOLECULE
ZINC001109404798
 49 52 1 0 0
SMALL
USER_CHARGES


@<TRIPOS>ATOM
      1 C1        -13.6700   -4.3144   54.1907 C.3     1  ZINC001109404798   -0.0600
      2 C2        -12.6214   -3.7272   55.1000 C.2     1  ZINC001109404798    0.1700
      3 N3        -11.8629   -2.7046   54.8396 N.2     1  ZINC001109404798   -0.3900
      4 O4        -11.1237   -2.4810   55.7749 O.3     1  ZINC001109404798    0.1000
      5 C5        -11.3472   -3.3667   56.7505 C.2     1  ZINC001109404798    0.1900
      6 C6        -10.6401   -3.4354   58.0796 C.3     1  ZINC001109404798    0.1600
      7 H7         -9.6430   -3.0058   57.9834 H       1  ZINC001109404798    0.1000
      8 C8        -10.5257   -4.8958   58.5214 C.3     1  ZINC001109404798   -0.1500
      9 N9        -11.4046   -2.6795   59.0806 N.3     1  ZINC001109404798   -0.4800
     10 C10       -11.4330   -1.2116   58.7427 C.3     1  ZINC001109404798    0.0400
     11 H11       -11.9317   -0.9477   57.8101 H       1  ZINC001109404798    0.1100
     12 C12        -9.9169   -0.8589   58.8184 C.3     1  ZINC001109404798   -0.1600
     13 C13        -9.3831   -1.7933   59.9317 C.3     1  ZINC001109404798   -0.1600
     14 C14       -10.6481   -2.5857   60.3800 C.3     1  ZINC001109404798    0.0400
     15 H15       -10.4559   -3.5308   60.8879 H       1  ZINC001109404798    0.1200
     16 C16       -11.5086   -1.5575   61.1744 C.3     1  ZINC001109404798    0.1500
     17 H17       -12.3311   -2.0587   61.6847 H       1  ZINC001109404798    0.1000
     18 N18       -10.6799   -0.8229   62.1332 N.am    1  ZINC001109404798   -0.7200
     19 C19       -11.2610   -0.0688   63.0872 C.2     1  ZINC001109404798    0.5100
     20 O20       -12.4700    0.0004   63.1529 O.2     1  ZINC001109404798   -0.5300
     21 C21       -10.4084    0.6884   64.0726 C.3     1  ZINC001109404798   -0.1300
     22 C22        -9.1622   -0.1341   64.4065 C.3     1  ZINC001109404798   -0.0400
     23 C23        -8.6319    0.2820   65.7543 C.2     1  ZINC001109404798   -0.1000
     24 C24        -8.8523   -0.4274   66.8621 C.2     1  ZINC001109404798   -0.2100
     25 S25        -8.0833    0.3640   68.2319 S.3     1  ZINC001109404798    0.1000
     26 C26        -7.4882    1.6516   67.1922 C.2     1  ZINC001109404798   -0.2100
     27 C27        -7.8741    1.4261   65.9354 C.2     1  ZINC001109404798   -0.1300
     28 C28       -12.0692   -0.6202   60.0367 C.3     1  ZINC001109404798   -0.1100
     29 N29       -12.3027   -4.1615   56.3323 N.2     1  ZINC001109404798   -0.4800
     30 H30       -14.6264   -3.8254   54.3757 H       1  ZINC001109404798    0.0900
     31 H31       -13.3779   -4.1601   53.1520 H       1  ZINC001109404798    0.0900
     32 H32       -13.7640   -5.3824   54.3869 H       1  ZINC001109404798    0.0900
     33 H33        -9.9584   -5.4567   57.7786 H       1  ZINC001109404798    0.0700
     34 H34       -10.0143   -4.9455   59.4827 H       1  ZINC001109404798    0.0800
     35 H35       -11.5228   -5.3255   58.6175 H       1  ZINC001109404798    0.0800
     36 H36        -9.4252   -1.0729   57.8694 H       1  ZINC001109404798    0.0700
     37 H37        -9.7795    0.1861   59.0960 H       1  ZINC001109404798    0.0800
     38 H38        -8.6269   -2.4704   59.5346 H       1  ZINC001109404798    0.0700
     39 H39        -8.9810   -1.2113   60.7610 H       1  ZINC001109404798    0.0800
     40 H40        -9.7129   -0.8791   62.0816 H       1  ZINC001109404798    0.4000
     41 H41       -10.1088    1.6415   63.6368 H       1  ZINC001109404798    0.0900
     42 H42       -10.9793    0.8690   64.9835 H       1  ZINC001109404798    0.1000
     43 H43        -9.4208   -1.1927   64.4288 H       1  ZINC001109404798    0.0800
     44 H44        -8.3994    0.0377   63.6470 H       1  ZINC001109404798    0.0800
     45 H45        -9.4169   -1.3467   66.9108 H       1  ZINC001109404798    0.1600
     46 H46        -6.8966    2.4935   67.5203 H       1  ZINC001109404798    0.1600
     47 H47        -7.6213    2.0903   65.1221 H       1  ZINC001109404798    0.1400
     48 H48       -11.7261    0.4045   60.1800 H       1  ZINC001109404798    0.0800
     49 H49       -13.1580   -0.6609   60.0076 H       1  ZINC001109404798    0.0900
@<TRIPOS>BOND
     1     1     2    1
     2     1    30    1
     3     1    31    1
     4     1    32    1
     5     2    29    1
     6     2     3    2
     7     3     4    1
     8     4     5    1
     9     5     6    1
    10     5    29    2
    11     6     7    1
    12     6     8    1
    13     6     9    1
    14     8    33    1
    15     8    34    1
    16     8    35    1
    17     9    14    1
    18     9    10    1
    19    10    11    1
    20    10    28    1
    21    10    12    1
    22    12    13    1
    23    12    36    1
    24    12    37    1
    25    13    14    1
    26    13    38    1
    27    13    39    1
    28    14    15    1
    29    14    16    1
    30    16    17    1
    31    16    18    1
    32    16    28    1
    33    18    19   am
    34    18    40    1
    35    19    20    2
    36    19    21    1
    37    21    22    1
    38    21    41    1
    39    21    42    1
    40    22    23    1
    41    22    43    1
    42    22    44    1
    43    23    27    1
    44    23    24    2
    45    24    25    1
    46    24    45    1
    47    25    26    1
    48    26    27    2
    49    26    46    1
    50    27    47    1
    51    28    48    1
    52    28    49    1
@<TRIPOS>SUBSTRUCTURE
     1 ZINC001109404798        1 TEMP              0 ****  ****    0 ROOT


##########                                Name:    ZINC000840464592
##########                DOCK_Rotatable_Bonds:                  10
##########                         Heavy_Atoms:                  26
##########                    Molecular_Weight:             360.497
##########                DOCK_Rotatable_Bonds:                  10
##########                       Formal_Charge:          -0.0399996
##########                     HBond_Acceptors:                   5
##########                        HBond_Donors:                   1
##########                         Heavy_Atoms:                  26
##########                          Grid_Score:          -35.009857
##########                     Grid_vdw_energy:          -34.823433
##########                      Grid_es_energy:           -0.186426
##########           Internal_energy_repulsive:           81.076134

@<TRIPOS>MOLECULE
ZINC000840464592
 58 59 1 0 0
SMALL
USER_CHARGES


@<TRIPOS>ATOM
      1 C1        -10.6476    0.0501   62.7521 C.3     1  ZINC000840464592   -0.1500
      2 C2        -11.9129    0.8058   62.3410 C.3     1  ZINC000840464592   -0.1300
      3 C3        -13.1329   -0.0953   62.5415 C.3     1  ZINC000840464592   -0.1200
      4 C4        -13.1588   -1.1687   61.4515 C.3     1  ZINC000840464592   -0.1200
      5 C5        -14.3938   -2.0528   61.6355 C.3     1  ZINC000840464592   -0.1200
      6 C6        -14.4920   -3.0406   60.4712 C.3     1  ZINC000840464592    0.0600
      7 O7        -14.7774   -2.3289   59.2654 O.3     1  ZINC000840464592   -0.3600
      8 C8        -15.5014   -3.0915   58.2978 C.3     1  ZINC000840464592    0.0800
      9 H9        -15.1470   -4.1222   58.3084 H       1  ZINC000840464592    0.0800
     10 C10       -16.9930   -3.0615   58.6369 C.3     1  ZINC000840464592   -0.1800
     11 C11       -15.2856   -2.5002   56.9285 C.2     1  ZINC000840464592    0.5200
     12 O12       -16.0250   -1.6298   56.5204 O.2     1  ZINC000840464592   -0.5000
     13 N13       -14.2710   -2.9387   56.1573 N.am    1  ZINC000840464592   -0.6000
     14 C14       -14.0657   -2.3627   54.8308 C.3     1  ZINC000840464592    0.0900
     15 C15       -14.2377   -3.4081   53.7346 C.3     1  ZINC000840464592   -0.1600
     16 C16       -13.1830   -4.5070   53.8831 C.3     1  ZINC000840464592    0.0800
     17 N17       -13.7016   -5.5519   54.7727 N.am    1  ZINC000840464592   -0.7200
     18 C18       -13.8329   -5.3194   56.0884 C.2     1  ZINC000840464592    0.5100
     19 O19       -14.3097   -6.1650   56.8155 O.2     1  ZINC000840464592   -0.5200
     20 C20       -13.3755   -3.9873   56.6573 C.3     1  ZINC000840464592    0.1400
     21 H21       -13.4202   -4.0198   57.7458 H       1  ZINC000840464592    0.1300
     22 C22       -11.9397   -3.7044   56.2108 C.3     1  ZINC000840464592   -0.1000
     23 C23       -11.1056   -3.3302   57.4088 C.ar    1  ZINC000840464592   -0.0900
     24 C24       -10.7847   -2.0059   57.6413 C.ar    1  ZINC000840464592   -0.1100
     25 C25       -10.0197   -1.6626   58.7402 C.ar    1  ZINC000840464592   -0.1200
     26 C26        -9.5758   -2.6438   59.6069 C.ar    1  ZINC000840464592   -0.1200
     27 C27        -9.8975   -3.9680   59.3751 C.ar    1  ZINC000840464592   -0.1200
     28 C28       -10.6662   -4.3107   58.2785 C.ar    1  ZINC000840464592   -0.1100
     29 H29       -10.5432   -0.8446   62.1383 H       1  ZINC000840464592    0.0500
     30 H30        -9.7784    0.6921   62.6091 H       1  ZINC000840464592    0.0500
     31 H31       -10.7198   -0.2354   63.8014 H       1  ZINC000840464592    0.0500
     32 H32       -12.0172    1.7006   62.9547 H       1  ZINC000840464592    0.0600
     33 H33       -11.8407    1.0914   61.2915 H       1  ZINC000840464592    0.0600
     34 H34       -13.0755   -0.5724   63.5198 H       1  ZINC000840464592    0.0600
     35 H35       -14.0412    0.5044   62.4823 H       1  ZINC000840464592    0.0600
     36 H36       -13.1964   -0.6914   60.4723 H       1  ZINC000840464592    0.0600
     37 H37       -12.2598   -1.7809   61.5229 H       1  ZINC000840464592    0.0600
     38 H38       -14.3103   -2.6031   62.5728 H       1  ZINC000840464592    0.0700
     39 H39       -15.2871   -1.4288   61.6588 H       1  ZINC000840464592    0.0700
     40 H40       -13.5462   -3.5716   60.3645 H       1  ZINC000840464592    0.0500
     41 H41       -15.2903   -3.7563   60.6683 H       1  ZINC000840464592    0.0500
     42 H42       -17.5527   -3.5828   57.8604 H       1  ZINC000840464592    0.0800
     43 H43       -17.1575   -3.5532   59.5957 H       1  ZINC000840464592    0.0700
     44 H44       -17.3313   -2.0271   58.6962 H       1  ZINC000840464592    0.0800
     45 H45       -14.7878   -1.5611   54.6749 H       1  ZINC000840464592    0.1000
     46 H46       -13.0588   -1.9493   54.7738 H       1  ZINC000840464592    0.0800
     47 H47       -15.2318   -3.8491   53.8088 H       1  ZINC000840464592    0.0800
     48 H48       -14.1281   -2.9316   52.7605 H       1  ZINC000840464592    0.1000
     49 H49       -12.9638   -4.9363   52.9055 H       1  ZINC000840464592    0.0900
     50 H50       -12.2734   -4.0839   54.3092 H       1  ZINC000840464592    0.1000
     51 H51       -13.9512   -6.4155   54.4083 H       1  ZINC000840464592    0.4000
     52 H52       -11.5227   -4.5955   55.7418 H       1  ZINC000840464592    0.0900
     53 H53       -11.9371   -2.8822   55.4951 H       1  ZINC000840464592    0.1000
     54 H54       -11.1314   -1.2393   56.9640 H       1  ZINC000840464592    0.1200
     55 H55        -9.7683   -0.6280   58.9213 H       1  ZINC000840464592    0.1200
     56 H56        -8.9775   -2.3757   60.4652 H       1  ZINC000840464592    0.1200
     57 H57        -9.5504   -4.7345   60.0522 H       1  ZINC000840464592    0.1200
     58 H58       -10.9175   -5.3453   58.0973 H       1  ZINC000840464592    0.1200
@<TRIPOS>BOND
     1     1     2    1
     2     1    29    1
     3     1    30    1
     4     1    31    1
     5     2     3    1
     6     2    32    1
     7     2    33    1
     8     3     4    1
     9     3    34    1
    10     3    35    1
    11     4     5    1
    12     4    36    1
    13     4    37    1
    14     5     6    1
    15     5    38    1
    16     5    39    1
    17     6     7    1
    18     6    40    1
    19     6    41    1
    20     7     8    1
    21     8     9    1
    22     8    10    1
    23     8    11    1
    24    10    42    1
    25    10    43    1
    26    10    44    1
    27    11    12    2
    28    11    13   am
    29    13    20    1
    30    13    14    1
    31    14    15    1
    32    14    45    1
    33    14    46    1
    34    15    16    1
    35    15    47    1
    36    15    48    1
    37    16    17    1
    38    16    49    1
    39    16    50    1
    40    17    18   am
    41    17    51    1
    42    18    19    2
    43    18    20    1
    44    20    21    1
    45    20    22    1
    46    22    23    1
    47    22    52    1
    48    22    53    1
    49    23    28   ar
    50    23    24   ar
    51    24    25   ar
    52    24    54    1
    53    25    26   ar
    54    25    55    1
    55    26    27   ar
    56    26    56    1
    57    27    28   ar
    58    27    57    1
    59    28    58    1
@<TRIPOS>SUBSTRUCTURE
     1 ZINC000840464592        1 TEMP              0 ****  ****    0 ROOT


##########                                Name:    ZINC000787750060
##########                DOCK_Rotatable_Bonds:                   6
##########                         Heavy_Atoms:                  24
##########                    Molecular_Weight:             347.438
##########                DOCK_Rotatable_Bonds:                   6
##########                       Formal_Charge:           0.0200003
##########                     HBond_Acceptors:                   7
##########                        HBond_Donors:                   2
##########                         Heavy_Atoms:                  24
##########                          Grid_Score:          -35.004890
##########                     Grid_vdw_energy:          -32.942734
##########                      Grid_es_energy:           -2.062156
##########           Internal_energy_repulsive:            8.403983

@<TRIPOS>MOLECULE
ZINC000787750060
 45 47 1 0 0
SMALL
USER_CHARGES


@<TRIPOS>ATOM
      1 C1        -10.6226    3.0351   63.9198 C.3     1  ZINC000787750060   -0.1200
      2 C2        -10.5763    1.7136   63.1967 C.ar    1  ZINC000787750060   -0.0400
      3 C3         -9.9071    0.6417   63.7637 C.ar    1  ZINC000787750060   -0.1300
      4 C4         -9.8583   -0.5714   63.1113 C.ar    1  ZINC000787750060   -0.0700
      5 C5        -10.4865   -0.7219   61.8730 C.ar    1  ZINC000787750060   -0.1700
      6 C6        -10.4386   -2.0178   61.1693 C.2     1  ZINC000787750060    0.5600
      7 O7        -11.4545   -2.6708   61.0280 O.2     1  ZINC000787750060   -0.5200
      8 N8         -9.2687   -2.4778   60.6832 N.am    1  ZINC000787750060   -0.7300
      9 C9         -9.2209   -3.7653   59.9860 C.3     1  ZINC000787750060    0.2100
     10 C10       -10.0195   -3.6761   58.7110 C.2     1  ZINC000787750060   -0.2800
     11 C11       -10.0608   -2.6305   57.8848 C.2     1  ZINC000787750060    0.0900
     12 N12       -10.8373   -2.7950   56.8286 N.2     1  ZINC000787750060   -0.5200
     13 C13       -11.4533   -3.9316   56.7253 C.2     1  ZINC000787750060    0.2300
     14 N14       -12.3050   -4.2819   55.6894 N.3     1  ZINC000787750060   -0.4500
     15 C15       -12.8933   -3.0883   55.0646 C.3     1  ZINC000787750060    0.0200
     16 C16       -13.7778   -3.5168   53.8908 C.3     1  ZINC000787750060    0.0600
     17 O17       -14.7742   -4.4295   54.3595 O.3     1  ZINC000787750060   -0.3800
     18 C18       -14.2362   -5.6038   54.9732 C.3     1  ZINC000787750060    0.0600
     19 C19       -13.3563   -5.1964   56.1580 C.3     1  ZINC000787750060    0.0300
     20 S20       -11.0550   -4.9381   58.0487 S.3     1  ZINC000787750060    0.1700
     21 C21       -11.1631    0.3653   61.3027 C.ar    1  ZINC000787750060    0.1700
     22 O22       -11.7769    0.2311   60.1004 O.3     1  ZINC000787750060   -0.4700
     23 C23       -11.2061    1.5771   61.9753 C.ar    1  ZINC000787750060   -0.1200
     24 C24       -11.9319    2.7497   61.3676 C.3     1  ZINC000787750060   -0.1200
     25 H25       -11.4961    3.0623   64.5713 H       1  ZINC000787750060    0.0800
     26 H26        -9.7193    3.1537   64.5181 H       1  ZINC000787750060    0.0700
     27 H27       -10.6861    3.8449   63.1930 H       1  ZINC000787750060    0.0800
     28 H28        -9.4211    0.7570   64.7212 H       1  ZINC000787750060    0.1300
     29 H29        -9.3348   -1.4043   63.5569 H       1  ZINC000787750060    0.1300
     30 H30        -8.4585   -1.9563   60.7949 H       1  ZINC000787750060    0.4000
     31 H31        -8.1859   -4.0125   59.7499 H       1  ZINC000787750060    0.0900
     32 H32        -9.6428   -4.5407   60.6253 H       1  ZINC000787750060    0.0800
     33 H33        -9.5045   -1.7223   58.0644 H       1  ZINC000787750060    0.1800
     34 H34       -13.4962   -2.5532   55.7983 H       1  ZINC000787750060    0.0600
     35 H35       -12.0977   -2.4375   54.7021 H       1  ZINC000787750060    0.1000
     36 H36       -14.2612   -2.6399   53.4601 H       1  ZINC000787750060    0.1100
     37 H37       -13.1653   -4.0046   53.1325 H       1  ZINC000787750060    0.0700
     38 H38       -15.0510   -6.2363   55.3256 H       1  ZINC000787750060    0.1100
     39 H39       -13.6369   -6.1524   54.2465 H       1  ZINC000787750060    0.0600
     40 H40       -12.8985   -6.0845   56.5937 H       1  ZINC000787750060    0.1000
     41 H41       -13.9666   -4.6950   56.9092 H       1  ZINC000787750060    0.0700
     42 H42       -11.9896    1.0714   59.6714 H       1  ZINC000787750060    0.4000
     43 H43       -12.9726    2.7405   61.6917 H       1  ZINC000787750060    0.0700
     44 H44       -11.4589    3.6770   61.6909 H       1  ZINC000787750060    0.0700
     45 H45       -11.8891    2.6798   60.2807 H       1  ZINC000787750060    0.0800
@<TRIPOS>BOND
     1     1     2    1
     2     1    25    1
     3     1    26    1
     4     1    27    1
     5     2    23   ar
     6     2     3   ar
     7     3     4   ar
     8     3    28    1
     9     4     5   ar
    10     4    29    1
    11     5     6    1
    12     5    21   ar
    13     6     7    2
    14     6     8   am
    15     8     9    1
    16     8    30    1
    17     9    10    1
    18     9    31    1
    19     9    32    1
    20    10    20    1
    21    10    11    2
    22    11    12    1
    23    11    33    1
    24    12    13    2
    25    13    14    1
    26    13    20    1
    27    14    19    1
    28    14    15    1
    29    15    16    1
    30    15    34    1
    31    15    35    1
    32    16    17    1
    33    16    36    1
    34    16    37    1
    35    17    18    1
    36    18    19    1
    37    18    38    1
    38    18    39    1
    39    19    40    1
    40    19    41    1
    41    21    22    1
    42    21    23   ar
    43    22    42    1
    44    23    24    1
    45    24    43    1
    46    24    44    1
    47    24    45    1
@<TRIPOS>SUBSTRUCTURE
     1 ZINC000787750060        1 TEMP              0 ****  ****    0 ROOT


##########                                Name:    ZINC000132775118
##########                DOCK_Rotatable_Bonds:                   5
##########                         Heavy_Atoms:                  27
##########                    Molecular_Weight:             376.499
##########                DOCK_Rotatable_Bonds:                   5
##########                       Formal_Charge:        -4.76837e-07
##########                     HBond_Acceptors:                   7
##########                        HBond_Donors:                   1
##########                         Heavy_Atoms:                  27
##########                          Grid_Score:          -35.000729
##########                     Grid_vdw_energy:          -33.922852
##########                      Grid_es_energy:           -1.077876
##########           Internal_energy_repulsive:           23.447035

@<TRIPOS>MOLECULE
ZINC000132775118
 59 62 1 0 0
SMALL
USER_CHARGES


@<TRIPOS>ATOM
      1 O1        -14.0141   -5.4524   56.0210 O.2     1  ZINC000132775118   -0.5200
      2 C2        -13.0623   -4.7139   55.8819 C.2     1  ZINC000132775118    0.5200
      3 C3        -12.0944   -4.5096   57.0188 C.3     1  ZINC000132775118    0.0300
      4 N4        -12.2456   -3.1493   57.5522 N.3     1  ZINC000132775118   -0.5100
      5 C5        -13.6640   -2.7718   57.6383 C.3     1  ZINC000132775118    0.0300
      6 C6        -13.8231   -1.4765   58.3809 C.2     1  ZINC000132775118    0.5300
      7 O7        -14.8796   -0.8873   58.2933 O.2     1  ZINC000132775118   -0.5500
      8 N8        -12.8548   -0.9402   59.1361 N.am    1  ZINC000132775118   -0.7200
      9 C9        -11.5347   -1.5462   59.2415 C.3     1  ZINC000132775118    0.1500
     10 H10       -10.8589   -1.0451   58.5484 H       1  ZINC000132775118    0.0800
     11 C11       -10.9723   -1.4265   60.6561 C.3     1  ZINC000132775118   -0.1300
     12 C12        -9.5622   -2.0248   60.6809 C.3     1  ZINC000132775118   -0.1200
     13 C13        -9.6104   -3.4933   60.2580 C.3     1  ZINC000132775118   -0.1200
     14 C14       -10.2029   -3.6139   58.8504 C.3     1  ZINC000132775118   -0.1200
     15 C15       -11.6155   -3.0288   58.8718 C.3     1  ZINC000132775118    0.0700
     16 H16       -12.2192   -3.5673   59.6022 H       1  ZINC000132775118    0.0600
     17 N17       -12.8670   -4.0801   54.7085 N.am    1  ZINC000132775118   -0.6200
     18 C18       -13.8051   -4.2646   53.5929 C.3     1  ZINC000132775118    0.1100
     19 C19       -14.2824   -2.8888   53.1173 C.3     1  ZINC000132775118   -0.1200
     20 C20       -13.0680   -2.0206   52.7804 C.3     1  ZINC000132775118   -0.1000
     21 C21       -13.5343   -0.6777   52.2798 C.2     1  ZINC000132775118    0.5300
     22 O22       -13.6062    0.2623   53.0427 O.2     1  ZINC000132775118   -0.5300
     23 N23       -13.8714   -0.5215   50.9843 N.am    1  ZINC000132775118   -0.6200
     24 C24       -13.8376   -1.5731   49.9573 C.3     1  ZINC000132775118    0.1000
     25 C25       -14.2801   -0.9285   48.6267 C.3     1  ZINC000132775118   -0.1300
     26 C26       -13.9949    0.5788   48.8590 C.3     1  ZINC000132775118   -0.1300
     27 C27       -14.3414    0.7304   50.3636 C.3     1  ZINC000132775118    0.1000
     28 C28       -12.2125   -1.8281   54.0347 C.3     1  ZINC000132775118   -0.1200
     29 C29       -11.7152   -3.1872   54.5227 C.3     1  ZINC000132775118    0.1200
     30 H30       -12.3013   -5.2339   57.8066 H       1  ZINC000132775118    0.0700
     31 H31       -11.0752   -4.6470   56.6574 H       1  ZINC000132775118    0.1200
     32 H32       -14.0679   -2.6608   56.6320 H       1  ZINC000132775118    0.1300
     33 H33       -14.2131   -3.5551   58.1606 H       1  ZINC000132775118    0.0700
     34 H34       -13.0385   -0.1239   59.6270 H       1  ZINC000132775118    0.4000
     35 H35       -10.9283   -0.3760   60.9438 H       1  ZINC000132775118    0.0800
     36 H36       -11.6122   -1.9706   61.3507 H       1  ZINC000132775118    0.0700
     37 H37        -8.9220   -1.4714   59.9937 H       1  ZINC000132775118    0.0700
     38 H38        -9.1558   -1.9520   61.6897 H       1  ZINC000132775118    0.0700
     39 H39        -8.6008   -3.9043   60.2620 H       1  ZINC000132775118    0.0700
     40 H40       -10.2293   -4.0518   60.9603 H       1  ZINC000132775118    0.0600
     41 H41        -9.5804   -3.0650   58.1439 H       1  ZINC000132775118    0.0800
     42 H42       -10.2474   -4.6640   58.5617 H       1  ZINC000132775118    0.0700
     43 H43       -13.3027   -4.7802   52.7744 H       1  ZINC000132775118    0.0800
     44 H44       -14.6600   -4.8523   53.9277 H       1  ZINC000132775118    0.0900
     45 H45       -14.9034   -3.0061   52.2293 H       1  ZINC000132775118    0.0800
     46 H46       -14.8626   -2.4119   53.9073 H       1  ZINC000132775118    0.0800
     47 H47       -12.4747   -2.5100   52.0080 H       1  ZINC000132775118    0.0900
     48 H48       -12.8249   -1.9646   49.8609 H       1  ZINC000132775118    0.0700
     49 H49       -14.5237   -2.3762   50.2263 H       1  ZINC000132775118    0.0700
     50 H50       -13.6853   -1.3101   47.7969 H       1  ZINC000132775118    0.0800
     51 H51       -15.3425   -1.0974   48.4509 H       1  ZINC000132775118    0.0800
     52 H52       -12.9469    0.8117   48.6707 H       1  ZINC000132775118    0.0800
     53 H53       -14.6479    1.1991   48.2451 H       1  ZINC000132775118    0.0900
     54 H54       -15.4173    0.8450   50.4954 H       1  ZINC000132775118    0.0700
     55 H55       -13.8131    1.5830   50.7904 H       1  ZINC000132775118    0.0800
     56 H56       -11.3603   -1.1904   53.7995 H       1  ZINC000132775118    0.0800
     57 H57       -12.8123   -1.3611   54.8159 H       1  ZINC000132775118    0.0800
     58 H58       -11.1891   -3.0653   55.4694 H       1  ZINC000132775118    0.1000
     59 H59       -11.0423   -3.6177   53.7811 H       1  ZINC000132775118    0.0700
@<TRIPOS>BOND
     1     1     2    2
     2     2     3    1
     3     2    17   am
     4     3     4    1
     5     3    30    1
     6     3    31    1
     7     4    15    1
     8     4     5    1
     9     5     6    1
    10     5    32    1
    11     5    33    1
    12     6     7    2
    13     6     8   am
    14     8     9    1
    15     8    34    1
    16     9    10    1
    17     9    15    1
    18     9    11    1
    19    11    12    1
    20    11    35    1
    21    11    36    1
    22    12    13    1
    23    12    37    1
    24    12    38    1
    25    13    14    1
    26    13    39    1
    27    13    40    1
    28    14    15    1
    29    14    41    1
    30    14    42    1
    31    15    16    1
    32    17    29    1
    33    17    18    1
    34    18    19    1
    35    18    43    1
    36    18    44    1
    37    19    20    1
    38    19    45    1
    39    19    46    1
    40    20    21    1
    41    20    28    1
    42    20    47    1
    43    21    22    2
    44    21    23   am
    45    23    27    1
    46    23    24    1
    47    24    25    1
    48    24    48    1
    49    24    49    1
    50    25    26    1
    51    25    50    1
    52    25    51    1
    53    26    27    1
    54    26    52    1
    55    26    53    1
    56    27    54    1
    57    27    55    1
    58    28    29    1
    59    28    56    1
    60    28    57    1
    61    29    58    1
    62    29    59    1
@<TRIPOS>SUBSTRUCTURE
     1 ZINC000132775118        1 TEMP              0 ****  ****    0 ROOT


##########                                Name:    ZINC000624498741
##########                DOCK_Rotatable_Bonds:                   7
##########                         Heavy_Atoms:                  27
##########                    Molecular_Weight:             379.339
##########                DOCK_Rotatable_Bonds:                   7
##########                       Formal_Charge:           0.0300003
##########                     HBond_Acceptors:                   9
##########                        HBond_Donors:                   0
##########                         Heavy_Atoms:                  27
##########                          Grid_Score:          -34.979664
##########                     Grid_vdw_energy:          -33.344120
##########                      Grid_es_energy:           -1.635543
##########           Internal_energy_repulsive:            8.984317

@<TRIPOS>MOLECULE
ZINC000624498741
 43 45 1 0 0
SMALL
USER_CHARGES


@<TRIPOS>ATOM
      1 C1        -12.1196   -2.3515   52.7122 C.3     1  ZINC000624498741   -0.1100
      2 C2        -12.5514   -3.2427   53.8482 C.ar    1  ZINC000624498741   -0.0900
      3 C3        -11.7661   -3.3506   54.9745 C.ar    1  ZINC000624498741   -0.0400
      4 C4        -12.1675   -4.1767   56.0272 C.ar    1  ZINC000624498741   -0.0500
      5 C5        -11.3287   -4.2949   57.2367 C.2     1  ZINC000624498741    0.2300
      6 N6        -10.6478   -3.3254   57.8234 N.2     1  ZINC000624498741   -0.4700
      7 C7        -10.0436   -3.8970   58.8766 C.2     1  ZINC000624498741    0.1800
      8 C8         -9.1456   -3.2059   59.8700 C.3     1  ZINC000624498741   -0.0300
      9 C9         -9.9907   -2.6364   61.0112 C.3     1  ZINC000624498741   -0.1300
     10 C10       -10.5937   -1.2978   60.5806 C.3     1  ZINC000624498741    0.0900
     11 N11       -11.2955   -0.6909   61.7143 N.am    1  ZINC000624498741   -0.5000
     12 C12       -10.5976    0.0342   62.6255 C.2     1  ZINC000624498741    0.1300
     13 C13       -11.2240    0.6041   63.6813 C.2     1  ZINC000624498741   -0.2300
     14 C14       -12.6080    0.4483   63.8416 C.2     1  ZINC000624498741   -0.0200
     15 C15       -13.3075   -0.2803   62.9249 C.2     1  ZINC000624498741   -0.2400
     16 C16       -12.6265   -0.8540   61.8377 C.2     1  ZINC000624498741    0.5100
     17 O17       -13.2402   -1.5083   61.0100 O.2     1  ZINC000624498741   -0.5500
     18 N18       -10.3736   -5.1548   58.8853 N.2     1  ZINC000624498741   -0.3700
     19 O19       -11.1137   -5.4063   57.9580 O.3     1  ZINC000624498741    0.0900
     20 C20       -13.3645   -4.8902   55.9327 C.ar    1  ZINC000624498741   -0.0200
     21 C21       -14.1444   -4.7767   54.8026 C.ar    1  ZINC000624498741   -0.1900
     22 C22       -13.7443   -3.9500   53.7602 C.ar    1  ZINC000624498741    0.1300
     23 O23       -14.5157   -3.8411   52.6482 O.3     1  ZINC000624498741   -0.3000
     24 C24       -15.6009   -2.9128   52.6998 C.3     1  ZINC000624498741    0.6000
     25 F25       -15.1043   -1.6280   52.9439 F       1  ZINC000624498741   -0.1600
     26 F26       -16.2833   -2.9248   51.4785 F       1  ZINC000624498741   -0.1300
     27 F27       -16.4776   -3.2770   53.7274 F       1  ZINC000624498741   -0.1600
     28 H28       -12.5150   -1.3476   52.8674 H       1  ZINC000624498741    0.0800
     29 H29       -11.0310   -2.3114   52.6754 H       1  ZINC000624498741    0.0800
     30 H30       -12.5005   -2.7507   51.7722 H       1  ZINC000624498741    0.0800
     31 H31       -10.8410   -2.7976   55.0436 H       1  ZINC000624498741    0.1500
     32 H32        -8.4286   -3.9221   60.2713 H       1  ZINC000624498741    0.1000
     33 H33        -8.6111   -2.3955   59.3743 H       1  ZINC000624498741    0.1000
     34 H34       -10.7920   -3.3346   61.2535 H       1  ZINC000624498741    0.0800
     35 H35        -9.3620   -2.4860   61.8889 H       1  ZINC000624498741    0.0800
     36 H36        -9.7982   -0.6315   60.2469 H       1  ZINC000624498741    0.1100
     37 H37       -11.2966   -1.4619   59.7638 H       1  ZINC000624498741    0.1000
     38 H38        -9.5313    0.1574   62.5067 H       1  ZINC000624498741    0.1600
     39 H39       -10.6579    1.1781   64.4001 H       1  ZINC000624498741    0.1500
     40 H40       -13.1146    0.8997   64.6818 H       1  ZINC000624498741    0.1400
     41 H41       -14.3743   -0.4115   63.0313 H       1  ZINC000624498741    0.1500
     42 H42       -13.6780   -5.5302   56.7442 H       1  ZINC000624498741    0.1500
     43 H43       -15.0700   -5.3284   54.7286 H       1  ZINC000624498741    0.1500
@<TRIPOS>BOND
     1     1     2    1
     2     1    28    1
     3     1    29    1
     4     1    30    1
     5     2    22   ar
     6     2     3   ar
     7     3     4   ar
     8     3    31    1
     9     4     5    1
    10     4    20   ar
    11     5    19    1
    12     5     6    2
    13     6     7    1
    14     7     8    1
    15     7    18    2
    16     8     9    1
    17     8    32    1
    18     8    33    1
    19     9    10    1
    20     9    34    1
    21     9    35    1
    22    10    11    1
    23    10    36    1
    24    10    37    1
    25    11    16   am
    26    11    12    1
    27    12    13    2
    28    12    38    1
    29    13    14    1
    30    13    39    1
    31    14    15    2
    32    14    40    1
    33    15    16    1
    34    15    41    1
    35    16    17    2
    36    18    19    1
    37    20    21   ar
    38    20    42    1
    39    21    22   ar
    40    21    43    1
    41    22    23    1
    42    23    24    1
    43    24    25    1
    44    24    26    1
    45    24    27    1
@<TRIPOS>SUBSTRUCTURE
     1 ZINC000624498741        1 TEMP              0 ****  ****    0 ROOT


##########                                Name:    ZINC000052999724
##########                DOCK_Rotatable_Bonds:                   6
##########                         Heavy_Atoms:                  25
##########                    Molecular_Weight:             398.571
##########                DOCK_Rotatable_Bonds:                   6
##########                       Formal_Charge:           0.0399994
##########                     HBond_Acceptors:                   8
##########                        HBond_Donors:                   1
##########                         Heavy_Atoms:                  25
##########                          Grid_Score:          -34.978973
##########                     Grid_vdw_energy:          -36.336010
##########                      Grid_es_energy:            1.357035
##########           Internal_energy_repulsive:           11.263546

@<TRIPOS>MOLECULE
ZINC000052999724
 47 49 1 0 0
SMALL
USER_CHARGES


@<TRIPOS>ATOM
      1 C1        -15.1700   -4.1421   57.3148 C.3     1  ZINC000052999724   -0.1400
      2 C2        -13.9577   -5.0366   57.0484 C.3     1  ZINC000052999724   -0.0400
      3 C3        -14.4332   -6.4161   56.5882 C.3     1  ZINC000052999724   -0.1400
      4 C4        -13.1019   -4.4162   55.9744 C.2     1  ZINC000052999724   -0.0400
      5 C5        -11.7673   -4.1661   56.1281 C.2     1  ZINC000052999724   -0.2600
      6 C6        -10.9810   -4.4558   57.3308 C.2     1  ZINC000052999724    0.6000
      7 O7        -10.6911   -5.6053   57.6061 O.2     1  ZINC000052999724   -0.5200
      8 N8        -10.5790   -3.4491   58.1318 N.am    1  ZINC000052999724   -0.6000
      9 C9        -10.9263   -2.0569   57.8160 C.3     1  ZINC000052999724    0.1100
     10 C10       -11.6061   -1.4292   59.0369 C.3     1  ZINC000052999724   -0.1400
     11 C11       -10.6991   -1.5890   60.2592 C.3     1  ZINC000052999724    0.1500
     12 N12       -11.3315   -0.9606   61.4216 N.am    1  ZINC000052999724   -1.1100
     13 S13       -10.4223   -0.0603   62.4730 S.o2    1  ZINC000052999724    2.7200
     14 O14        -9.5286   -0.9650   63.1069 O.2     1  ZINC000052999724   -0.9500
     15 O15        -9.9876    1.0833   61.7499 O.2     1  ZINC000052999724   -0.9400
     16 C16       -11.5083    0.5287   63.7293 C.2     1  ZINC000052999724   -0.8000
     17 C17       -11.1504    0.8190   64.9811 C.2     1  ZINC000052999724    0.0100
     18 C18       -12.1783    1.2672   65.7926 C.2     1  ZINC000052999724   -0.1600
     19 C19       -13.3710    1.3408   65.1999 C.2     1  ZINC000052999724   -0.1700
     20 S20       -13.2286    0.8310   63.5226 S.3     1  ZINC000052999724    0.2100
     21 C21       -10.4777   -3.0768   60.5413 C.3     1  ZINC000052999724   -0.1500
     22 C22        -9.7904   -3.7237   59.3407 C.3     1  ZINC000052999724    0.1100
     23 S23       -11.1443   -3.4419   54.6520 S.3     1  ZINC000052999724    0.2100
     24 C24       -12.6813   -3.5099   53.9145 C.2     1  ZINC000052999724   -0.2400
     25 C25       -13.5848   -4.0506   54.7403 C.2     1  ZINC000052999724   -0.1300
     26 H26       -14.8313   -3.1593   57.6427 H       1  ZINC000052999724    0.0600
     27 H27       -15.7534   -4.0387   56.3999 H       1  ZINC000052999724    0.0600
     28 H28       -15.7890   -4.5909   58.0917 H       1  ZINC000052999724    0.0600
     29 H29       -13.3744   -5.1401   57.9633 H       1  ZINC000052999724    0.0800
     30 H30       -15.0166   -6.3128   55.6732 H       1  ZINC000052999724    0.0600
     31 H31       -13.5695   -7.0535   56.3983 H       1  ZINC000052999724    0.0600
     32 H32       -15.0522   -6.8650   57.3649 H       1  ZINC000052999724    0.0600
     33 H33       -10.0208   -1.5000   57.5754 H       1  ZINC000052999724    0.0800
     34 H34       -11.6084   -2.0342   56.9660 H       1  ZINC000052999724    0.0900
     35 H35       -11.7823   -0.3698   58.8506 H       1  ZINC000052999724    0.0900
     36 H36       -12.5567   -1.9296   59.2214 H       1  ZINC000052999724    0.0800
     37 H37        -9.7396   -1.1099   60.0644 H       1  ZINC000052999724    0.0900
     38 H38       -12.2827   -1.0718   61.5755 H       1  ZINC000052999724    0.4200
     39 H39       -10.1355    0.7122   65.3346 H       1  ZINC000052999724    0.1600
     40 H40       -12.0262    1.5365   66.8273 H       1  ZINC000052999724    0.1500
     41 H41       -14.2838    1.6672   65.6761 H       1  ZINC000052999724    0.1800
     42 H42        -9.8508   -3.1900   61.4257 H       1  ZINC000052999724    0.1000
     43 H43       -11.4390   -3.5617   60.7116 H       1  ZINC000052999724    0.0800
     44 H44        -9.7203   -4.8003   59.4962 H       1  ZINC000052999724    0.1000
     45 H45        -8.7916   -3.3038   59.2215 H       1  ZINC000052999724    0.0800
     46 H46       -12.8954   -3.1662   52.9133 H       1  ZINC000052999724    0.1700
     47 H47       -14.6196   -4.1825   54.4606 H       1  ZINC000052999724    0.1400
@<TRIPOS>BOND
     1     1     2    1
     2     1    26    1
     3     1    27    1
     4     1    28    1
     5     2     3    1
     6     2     4    1
     7     2    29    1
     8     3    30    1
     9     3    31    1
    10     3    32    1
    11     4    25    1
    12     4     5    2
    13     5     6    1
    14     5    23    1
    15     6     7    2
    16     6     8   am
    17     8    22    1
    18     8     9    1
    19     9    10    1
    20     9    33    1
    21     9    34    1
    22    10    11    1
    23    10    35    1
    24    10    36    1
    25    11    12    1
    26    11    21    1
    27    11    37    1
    28    12    13   am
    29    12    38    1
    30    13    14    2
    31    13    15    2
    32    13    16    1
    33    16    20    1
    34    16    17    2
    35    17    18    1
    36    17    39    1
    37    18    19    2
    38    18    40    1
    39    19    20    1
    40    19    41    1
    41    21    22    1
    42    21    42    1
    43    21    43    1
    44    22    44    1
    45    22    45    1
    46    23    24    1
    47    24    25    2
    48    24    46    1
    49    25    47    1
@<TRIPOS>SUBSTRUCTURE
     1 ZINC000052999724        1 TEMP              0 ****  ****    0 ROOT


##########                                Name:    ZINC000462219577
##########                DOCK_Rotatable_Bonds:                   8
##########                         Heavy_Atoms:                  31
##########                    Molecular_Weight:             418.539
##########                DOCK_Rotatable_Bonds:                   8
##########                       Formal_Charge:         -0.00999914
##########                     HBond_Acceptors:                   6
##########                        HBond_Donors:                   2
##########                         Heavy_Atoms:                  31
##########                          Grid_Score:          -34.973854
##########                     Grid_vdw_energy:          -32.498272
##########                      Grid_es_energy:           -2.475583
##########           Internal_energy_repulsive:           12.414604

@<TRIPOS>MOLECULE
ZINC000462219577
 61 64 1 0 0
SMALL
USER_CHARGES


@<TRIPOS>ATOM
      1 C1         -4.3811    3.1065   52.6143 C.3     1  ZINC000462219577   -0.0700
      2 C2         -4.6152    3.1341   54.1028 C.2     1  ZINC000462219577    0.0800
      3 N3         -3.7211    2.8817   55.0246 N.2     1  ZINC000462219577   -0.2900
      4 N4         -4.3343    3.0129   56.2772 N.pl3   1  ZINC000462219577   -0.3200
      5 C5         -3.7169    2.8255   57.5217 C.ar    1  ZINC000462219577    0.1500
      6 C6         -3.0897    1.6216   57.8127 C.ar    1  ZINC000462219577   -0.1100
      7 C7         -2.4823    1.4399   59.0398 C.ar    1  ZINC000462219577   -0.1000
      8 C8         -2.4990    2.4554   59.9783 C.ar    1  ZINC000462219577   -0.1200
      9 C9         -3.1233    3.6554   59.6915 C.ar    1  ZINC000462219577   -0.1000
     10 C10        -3.7267    3.8454   58.4637 C.ar    1  ZINC000462219577   -0.1300
     11 C11        -5.6272    3.3529   56.0732 C.2     1  ZINC000462219577    0.0900
     12 C12        -6.6610    3.5974   57.1419 C.3     1  ZINC000462219577   -0.0800
     13 C13        -7.9517    2.8590   56.7813 C.3     1  ZINC000462219577    0.1700
     14 H14        -7.7641    2.1873   55.9437 H       1  ZINC000462219577    0.1000
     15 C15        -9.0276    3.8741   56.3900 C.3     1  ZINC000462219577   -0.1600
     16 N16        -8.4095    2.0832   57.9366 N.am    1  ZINC000462219577   -0.7400
     17 C17        -9.2571    1.0500   57.7614 C.2     1  ZINC000462219577    0.7100
     18 O18        -9.6406    0.7611   56.6444 O.2     1  ZINC000462219577   -0.5800
     19 N19        -9.6795    0.3372   58.8245 N.am    1  ZINC000462219577   -0.7400
     20 C20       -10.5994   -0.7868   58.6339 C.3     1  ZINC000462219577    0.1600
     21 H21       -10.8372   -0.8879   57.5749 H       1  ZINC000462219577    0.1000
     22 C22        -9.9438   -2.0765   59.1372 C.3     1  ZINC000462219577   -0.1700
     23 C23        -9.6835   -1.9541   60.6409 C.3     1  ZINC000462219577    0.0700
     24 O24       -10.9151   -1.6918   61.3164 O.3     1  ZINC000462219577   -0.3700
     25 C25       -11.5498   -0.4742   60.9204 C.3     1  ZINC000462219577    0.1400
     26 H26       -10.8778    0.3635   61.1071 H       1  ZINC000462219577    0.0600
     27 C27       -12.8178   -0.2875   61.7133 C.ar    1  ZINC000462219577   -0.0900
     28 C28       -13.7119   -1.3337   61.8434 C.ar    1  ZINC000462219577   -0.0900
     29 C29       -14.8750   -1.1624   62.5707 C.ar    1  ZINC000462219577   -0.1200
     30 C30       -15.1437    0.0548   63.1681 C.ar    1  ZINC000462219577   -0.1200
     31 C31       -14.2491    1.1007   63.0386 C.ar    1  ZINC000462219577   -0.1200
     32 C32       -13.0840    0.9282   62.3150 C.ar    1  ZINC000462219577   -0.1100
     33 C33       -11.8862   -0.5360   59.4263 C.3     1  ZINC000462219577   -0.1500
     34 C34        -5.8241    3.4400   54.7373 C.2     1  ZINC000462219577   -0.2600
     35 H35        -4.0614    4.0929   52.2784 H       1  ZINC000462219577    0.0800
     36 H36        -3.6073    2.3749   52.3816 H       1  ZINC000462219577    0.0700
     37 H37        -5.3054    2.8316   52.1062 H       1  ZINC000462219577    0.0800
     38 H38        -3.0769    0.8278   57.0805 H       1  ZINC000462219577    0.1300
     39 H39        -1.9942    0.5036   59.2668 H       1  ZINC000462219577    0.1300
     40 H40        -2.0237    2.3108   60.9372 H       1  ZINC000462219577    0.1300
     41 H41        -3.1354    4.4464   60.4266 H       1  ZINC000462219577    0.1300
     42 H42        -4.2141    4.7829   58.2402 H       1  ZINC000462219577    0.1300
     43 H43        -6.2884    3.2316   58.0987 H       1  ZINC000462219577    0.0900
     44 H44        -6.8623    4.6662   57.2150 H       1  ZINC000462219577    0.1100
     45 H45        -9.2152    4.5459   57.2276 H       1  ZINC000462219577    0.0600
     46 H46        -8.6870    4.4513   55.5304 H       1  ZINC000462219577    0.0700
     47 H47        -9.9471    3.3481   56.1332 H       1  ZINC000462219577    0.0700
     48 H48        -8.1026    2.3130   58.8276 H       1  ZINC000462219577    0.3900
     49 H49        -9.3744    0.5686   59.7157 H       1  ZINC000462219577    0.3900
     50 H50       -10.6084   -2.9200   58.9500 H       1  ZINC000462219577    0.0800
     51 H51        -8.9996   -2.2327   58.6156 H       1  ZINC000462219577    0.0800
     52 H52        -9.2561   -2.8854   61.0127 H       1  ZINC000462219577    0.1000
     53 H53        -8.9870   -1.1358   60.8238 H       1  ZINC000462219577    0.0500
     54 H54       -13.5020   -2.2847   61.3768 H       1  ZINC000462219577    0.1300
     55 H55       -15.5738   -1.9796   62.6719 H       1  ZINC000462219577    0.1200
     56 H56       -16.0527    0.1888   63.7357 H       1  ZINC000462219577    0.1200
     57 H57       -14.4593    2.0518   63.5051 H       1  ZINC000462219577    0.1200
     58 H58       -12.3852    1.7453   62.2138 H       1  ZINC000462219577    0.1200
     59 H59       -12.3302    0.4090   59.1134 H       1  ZINC000462219577    0.0800
     60 H60       -12.5900   -1.3482   59.2446 H       1  ZINC000462219577    0.0900
     61 H61        -6.7525    3.6937   54.2472 H       1  ZINC000462219577    0.1500
@<TRIPOS>BOND
     1     1     2    1
     2     1    35    1
     3     1    36    1
     4     1    37    1
     5     2    34    1
     6     2     3    2
     7     3     4    1
     8     4     5    1
     9     4    11    1
    10     5    10   ar
    11     5     6   ar
    12     6     7   ar
    13     6    38    1
    14     7     8   ar
    15     7    39    1
    16     8     9   ar
    17     8    40    1
    18     9    10   ar
    19     9    41    1
    20    10    42    1
    21    11    12    1
    22    11    34    2
    23    12    13    1
    24    12    43    1
    25    12    44    1
    26    13    14    1
    27    13    15    1
    28    13    16    1
    29    15    45    1
    30    15    46    1
    31    15    47    1
    32    16    17   am
    33    16    48    1
    34    17    18    2
    35    17    19   am
    36    19    20    1
    37    19    49    1
    38    20    21    1
    39    20    33    1
    40    20    22    1
    41    22    23    1
    42    22    50    1
    43    22    51    1
    44    23    24    1
    45    23    52    1
    46    23    53    1
    47    24    25    1
    48    25    26    1
    49    25    27    1
    50    25    33    1
    51    27    32   ar
    52    27    28   ar
    53    28    29   ar
    54    28    54    1
    55    29    30   ar
    56    29    55    1
    57    30    31   ar
    58    30    56    1
    59    31    32   ar
    60    31    57    1
    61    32    58    1
    62    33    59    1
    63    33    60    1
    64    34    61    1
@<TRIPOS>SUBSTRUCTURE
     1 ZINC000462219577        1 TEMP              0 ****  ****    0 ROOT


##########                                Name:    ZINC000914736341
##########                DOCK_Rotatable_Bonds:                   7
##########                         Heavy_Atoms:                  27
##########                    Molecular_Weight:             384.905
##########                DOCK_Rotatable_Bonds:                   7
##########                       Formal_Charge:                0.02
##########                     HBond_Acceptors:                   5
##########                        HBond_Donors:                   1
##########                         Heavy_Atoms:                  27
##########                          Grid_Score:          -34.963833
##########                     Grid_vdw_energy:          -34.427185
##########                      Grid_es_energy:           -0.536646
##########           Internal_energy_repulsive:           27.946680

@<TRIPOS>MOLECULE
ZINC000914736341
 52 54 1 0 0
SMALL
USER_CHARGES


@<TRIPOS>ATOM
      1 C1        -11.9126    1.1321   53.6058 C.3     1  ZINC000914736341   -0.1400
      2 C2        -10.4907    1.0158   53.0527 C.3     1  ZINC000914736341   -0.0300
      3 C3         -9.4844    1.1986   54.1905 C.3     1  ZINC000914736341   -0.1400
      4 C4        -10.3008   -0.3645   52.4206 C.3     1  ZINC000914736341    0.1300
      5 N5        -10.5650   -1.4007   53.4219 N.am    1  ZINC000914736341   -0.7200
      6 C6        -11.0331   -2.6049   53.0381 C.2     1  ZINC000914736341    0.5300
      7 O7        -11.2369   -2.8302   51.8640 O.2     1  ZINC000914736341   -0.5300
      8 C8        -11.3032   -3.6715   54.0679 C.3     1  ZINC000914736341   -0.1200
      9 H9        -10.4444   -4.3342   54.1747 H       1  ZINC000914736341    0.1200
     10 C10       -12.5787   -4.4712   53.7150 C.3     1  ZINC000914736341   -0.1400
     11 C11       -13.2271   -4.7453   55.0540 C.2     1  ZINC000914736341    0.5200
     12 O12       -14.0900   -5.5745   55.2511 O.2     1  ZINC000914736341   -0.5200
     13 N13       -12.7074   -3.9365   55.9935 N.am    1  ZINC000914736341   -0.6100
     14 C14       -13.1051   -3.9451   57.4034 C.3     1  ZINC000914736341    0.1600
     15 C15       -12.0044   -3.3448   58.2396 C.ar    1  ZINC000914736341   -0.1000
     16 C16       -12.1240   -2.0526   58.7147 C.ar    1  ZINC000914736341   -0.0800
     17 C17       -11.1143   -1.5016   59.4818 C.ar    1  ZINC000914736341   -0.1100
     18 C18        -9.9845   -2.2425   59.7735 C.ar    1  ZINC000914736341   -0.1000
     19 C19        -9.8638   -3.5352   59.2989 C.ar    1  ZINC000914736341   -0.1100
     20 C20       -10.8764   -4.0892   58.5365 C.ar    1  ZINC000914736341   -0.0300
     21 Cl21      -10.7255   -5.7125   57.9401 Cl      1  ZINC000914736341   -0.0600
     22 C22       -11.6894   -3.0439   55.4256 C.3     1  ZINC000914736341    0.1000
     23 C23       -10.2688    2.0808   52.0098 C.ar    1  ZINC000914736341   -0.0700
     24 C24        -8.9929    2.5526   51.7644 C.ar    1  ZINC000914736341   -0.1200
     25 C25        -8.7893    3.5295   50.8077 C.ar    1  ZINC000914736341   -0.1200
     26 C26        -9.8617    4.0342   50.0962 C.ar    1  ZINC000914736341   -0.1200
     27 C27       -11.1374    3.5616   50.3409 C.ar    1  ZINC000914736341   -0.1200
     28 C28       -11.3404    2.5817   51.2946 C.ar    1  ZINC000914736341   -0.1100
     29 H29       -12.0479    2.1154   54.0562 H       1  ZINC000914736341    0.0600
     30 H30       -12.6295    1.0019   52.7952 H       1  ZINC000914736341    0.0600
     31 H31       -12.0731    0.3618   54.3601 H       1  ZINC000914736341    0.0600
     32 H32        -9.6449    0.4283   54.9448 H       1  ZINC000914736341    0.0600
     33 H33        -8.4714    1.1156   53.7965 H       1  ZINC000914736341    0.0600
     34 H34        -9.6197    2.1820   54.6409 H       1  ZINC000914736341    0.0600
     35 H35       -10.9927   -0.4804   51.5863 H       1  ZINC000914736341    0.0700
     36 H36        -9.2769   -0.4609   52.0595 H       1  ZINC000914736341    0.0700
     37 H37       -10.4031   -1.2201   54.3611 H       1  ZINC000914736341    0.4000
     38 H38       -13.2402   -3.8759   53.0855 H       1  ZINC000914736341    0.1100
     39 H39       -12.3178   -5.4060   53.2189 H       1  ZINC000914736341    0.1100
     40 H40       -14.0162   -3.3596   57.5276 H       1  ZINC000914736341    0.1000
     41 H41       -13.2862   -4.9712   57.7236 H       1  ZINC000914736341    0.1000
     42 H42       -13.0061   -1.4729   58.4864 H       1  ZINC000914736341    0.1400
     43 H43       -11.2081   -0.4918   59.8529 H       1  ZINC000914736341    0.1300
     44 H44        -9.1957   -1.8114   60.3722 H       1  ZINC000914736341    0.1300
     45 H45        -8.9810   -4.1141   59.5269 H       1  ZINC000914736341    0.1400
     46 H46       -10.8202   -2.9974   56.0817 H       1  ZINC000914736341    0.1000
     47 H47       -12.1034   -2.0468   55.2754 H       1  ZINC000914736341    0.0900
     48 H48        -8.1551    2.1583   52.3203 H       1  ZINC000914736341    0.1300
     49 H49        -7.7926    3.8987   50.6165 H       1  ZINC000914736341    0.1200
     50 H50        -9.7027    4.7979   49.3492 H       1  ZINC000914736341    0.1200
     51 H51       -11.9752    3.9562   49.7852 H       1  ZINC000914736341    0.1200
     52 H52       -12.3372    2.2125   51.4857 H       1  ZINC000914736341    0.1200
@<TRIPOS>BOND
     1     1     2    1
     2     1    29    1
     3     1    30    1
     4     1    31    1
     5     2     3    1
     6     2     4    1
     7     2    23    1
     8     3    32    1
     9     3    33    1
    10     3    34    1
    11     4     5    1
    12     4    35    1
    13     4    36    1
    14     5     6   am
    15     5    37    1
    16     6     7    2
    17     6     8    1
    18     8     9    1
    19     8    22    1
    20     8    10    1
    21    10    11    1
    22    10    38    1
    23    10    39    1
    24    11    12    2
    25    11    13   am
    26    13    14    1
    27    13    22    1
    28    14    15    1
    29    14    40    1
    30    14    41    1
    31    15    20   ar
    32    15    16   ar
    33    16    17   ar
    34    16    42    1
    35    17    18   ar
    36    17    43    1
    37    18    19   ar
    38    18    44    1
    39    19    20   ar
    40    19    45    1
    41    20    21    1
    42    22    46    1
    43    22    47    1
    44    23    28   ar
    45    23    24   ar
    46    24    25   ar
    47    24    48    1
    48    25    26   ar
    49    25    49    1
    50    26    27   ar
    51    26    50    1
    52    27    28   ar
    53    27    51    1
    54    28    52    1
@<TRIPOS>SUBSTRUCTURE
     1 ZINC000914736341        1 TEMP              0 ****  ****    0 ROOT


##########                                Name:    ZINC000179743483
##########                DOCK_Rotatable_Bonds:                   5
##########                         Heavy_Atoms:                  23
##########                    Molecular_Weight:             393.347
##########                DOCK_Rotatable_Bonds:                   5
##########                       Formal_Charge:          -0.0199999
##########                     HBond_Acceptors:                   4
##########                        HBond_Donors:                   0
##########                         Heavy_Atoms:                  23
##########                          Grid_Score:          -34.944504
##########                     Grid_vdw_energy:          -34.672604
##########                      Grid_es_energy:           -0.271902
##########           Internal_energy_repulsive:           28.250956

@<TRIPOS>MOLECULE
ZINC000179743483
 44 46 1 0 0
SMALL
USER_CHARGES


@<TRIPOS>ATOM
      1 C1        -14.8758   -3.5268   53.5586 C.3     1  ZINC000179743483   -0.1400
      2 C2        -13.7554   -3.2598   54.5659 C.3     1  ZINC000179743483   -0.1000
      3 H3        -13.9532   -2.3246   55.0898 H       1  ZINC000179743483    0.1000
      4 C4        -13.6938   -4.4072   55.5762 C.3     1  ZINC000179743483   -0.0700
      5 C5        -12.6076   -4.1316   56.5838 C.ar    1  ZINC000179743483   -0.0600
      6 C6        -12.3378   -2.8321   56.9709 C.ar    1  ZINC000179743483   -0.1100
      7 C7        -11.3419   -2.5789   57.8954 C.ar    1  ZINC000179743483   -0.0900
      8 C8        -10.6152   -3.6259   58.4331 C.ar    1  ZINC000179743483   -0.0900
      9 Br9        -9.2531   -3.2801   59.6983 Br      1  ZINC000179743483   -0.0500
     10 C10       -10.8856   -4.9258   58.0454 C.ar    1  ZINC000179743483   -0.0900
     11 C11       -11.8851   -5.1786   57.1249 C.ar    1  ZINC000179743483   -0.1100
     12 C12       -12.4394   -3.1596   53.8387 C.2     1  ZINC000179743483    0.5200
     13 O13       -11.6738   -4.1002   53.8379 O.2     1  ZINC000179743483   -0.5300
     14 N14       -12.1130   -2.0247   53.1891 N.am    1  ZINC000179743483   -0.6100
     15 C15       -13.0300   -0.8767   53.1809 C.3     1  ZINC000179743483    0.1000
     16 C16       -12.2730    0.3626   53.6688 C.3     1  ZINC000179743483   -0.1400
     17 C17       -11.0163    0.5559   52.8170 C.3     1  ZINC000179743483   -0.1100
     18 C18       -10.1012   -0.6610   52.9714 C.3     1  ZINC000179743483   -0.0200
     19 H19        -9.8367   -0.7864   54.0214 H       1  ZINC000179743483    0.0900
     20 C20        -8.8491   -0.4551   52.1585 C.2     1  ZINC000179743483    0.0500
     21 N21        -8.2237   -1.3839   51.5175 N.2     1  ZINC000179743483   -0.4700
     22 C22        -7.1412   -1.0316   50.8535 C.2     1  ZINC000179743483    0.0400
     23 C23        -6.8366    0.2668   50.9393 C.2     1  ZINC000179743483   -0.2600
     24 S24        -8.0557    1.0445   51.9461 S.3     1  ZINC000179743483    0.1300
     25 C25       -10.8309   -1.9097   52.4808 C.3     1  ZINC000179743483    0.1200
     26 H26       -14.6396   -4.4206   52.9811 H       1  ZINC000179743483    0.0700
     27 H27       -15.8151   -3.6758   54.0910 H       1  ZINC000179743483    0.0700
     28 H28       -14.9705   -2.6743   52.8861 H       1  ZINC000179743483    0.0600
     29 H29       -14.6520   -4.4917   56.0888 H       1  ZINC000179743483    0.0900
     30 H30       -13.4774   -5.3394   55.0544 H       1  ZINC000179743483    0.0800
     31 H31       -12.9050   -2.0148   56.5507 H       1  ZINC000179743483    0.1300
     32 H32       -11.1310   -1.5637   58.1975 H       1  ZINC000179743483    0.1300
     33 H33       -10.3184   -5.7435   58.4650 H       1  ZINC000179743483    0.1300
     34 H34       -12.0963   -6.1936   56.8221 H       1  ZINC000179743483    0.1300
     35 H35       -13.3941   -0.7071   52.1676 H       1  ZINC000179743483    0.0700
     36 H36       -13.8710   -1.0762   53.8451 H       1  ZINC000179743483    0.0900
     37 H37       -12.9134    1.2397   53.5766 H       1  ZINC000179743483    0.0800
     38 H38       -11.9880    0.2274   54.7122 H       1  ZINC000179743483    0.0700
     39 H39       -11.3004    0.6661   51.7705 H       1  ZINC000179743483    0.0800
     40 H40       -10.4887    1.4511   53.1461 H       1  ZINC000179743483    0.0700
     41 H41        -6.5487   -1.7346   50.2869 H       1  ZINC000179743483    0.1800
     42 H42        -5.9941    0.7540   50.4709 H       1  ZINC000179743483    0.1800
     43 H43       -10.2214   -2.7912   52.6803 H       1  ZINC000179743483    0.0900
     44 H44       -11.0178   -1.8268   51.4101 H       1  ZINC000179743483    0.0800
@<TRIPOS>BOND
     1     1     2    1
     2     1    26    1
     3     1    27    1
     4     1    28    1
     5     2     3    1
     6     2     4    1
     7     2    12    1
     8     4     5    1
     9     4    29    1
    10     4    30    1
    11     5    11   ar
    12     5     6   ar
    13     6     7   ar
    14     6    31    1
    15     7     8   ar
    16     7    32    1
    17     8     9    1
    18     8    10   ar
    19    10    11   ar
    20    10    33    1
    21    11    34    1
    22    12    13    2
    23    12    14   am
    24    14    25    1
    25    14    15    1
    26    15    16    1
    27    15    35    1
    28    15    36    1
    29    16    17    1
    30    16    37    1
    31    16    38    1
    32    17    18    1
    33    17    39    1
    34    17    40    1
    35    18    19    1
    36    18    20    1
    37    18    25    1
    38    20    24    1
    39    20    21    2
    40    21    22    1
    41    22    23    2
    42    22    41    1
    43    23    24    1
    44    23    42    1
    45    25    43    1
    46    25    44    1
@<TRIPOS>SUBSTRUCTURE
     1 ZINC000179743483        1 TEMP              0 ****  ****    0 ROOT


##########                                Name:    ZINC000992031068
##########                DOCK_Rotatable_Bonds:                   8
##########                         Heavy_Atoms:                  25
##########                    Molecular_Weight:             342.401
##########                DOCK_Rotatable_Bonds:                   8
##########                       Formal_Charge:           0.0199999
##########                     HBond_Acceptors:                   8
##########                        HBond_Donors:                   2
##########                         Heavy_Atoms:                  25
##########                          Grid_Score:          -34.936783
##########                     Grid_vdw_energy:          -32.543438
##########                      Grid_es_energy:           -2.393347
##########           Internal_energy_repulsive:            8.947974

@<TRIPOS>MOLECULE
ZINC000992031068
 47 49 1 0 0
SMALL
USER_CHARGES


@<TRIPOS>ATOM
      1 C1        -15.1402   -2.7782   54.0252 C.3     1  ZINC000992031068   -0.1100
      2 C2        -13.7052   -3.2120   54.1793 C.ar    1  ZINC000992031068    0.1800
      3 C3        -13.0789   -3.1423   55.4155 C.ar    1  ZINC000992031068   -0.1700
      4 C4        -11.7494   -3.5561   55.5070 C.ar    1  ZINC000992031068    0.1300
      5 C5        -11.0304   -3.5037   56.8047 C.2     1  ZINC000992031068    0.5700
      6 O6        -10.9916   -4.4864   57.5177 O.2     1  ZINC000992031068   -0.5200
      7 N7        -10.4206   -2.3658   57.1918 N.am    1  ZINC000992031068   -0.7100
      8 C8         -9.7095   -2.3146   58.4716 C.3     1  ZINC000992031068    0.1300
      9 C9        -10.6946   -1.9654   59.5889 C.3     1  ZINC000992031068   -0.1200
     10 C10       -10.1528   -2.2510   60.9995 C.3     1  ZINC000992031068   -0.1400
     11 C11       -10.8162   -0.9340   61.4356 C.3     1  ZINC000992031068    0.1200
     12 N12       -10.0049   -0.1493   62.3696 N.am    1  ZINC000992031068   -0.7200
     13 C13       -10.5949    0.5047   63.3897 C.2     1  ZINC000992031068    0.5200
     14 O14       -11.7972    0.4425   63.5353 O.2     1  ZINC000992031068   -0.5200
     15 C15        -9.7605    1.3133   64.3493 C.3     1  ZINC000992031068   -0.0800
     16 C16       -10.1833    1.0079   65.7631 C.2     1  ZINC000992031068    0.1000
     17 C17       -11.4223    1.1784   66.2797 C.2     1  ZINC000992031068   -0.2500
     18 C18       -11.3894    0.7757   67.6189 C.2     1  ZINC000992031068    0.0500
     19 N19       -10.1743    0.3777   67.8962 N.2     1  ZINC000992031068   -0.2900
     20 N20        -9.3957    0.5096   66.7392 N.pl3   1  ZINC000992031068   -0.3700
     21 C21        -7.9750    0.1747   66.6135 C.3     1  ZINC000992031068    0.1000
     22 C22       -10.6877   -0.4764   59.9732 C.3     1  ZINC000992031068   -0.1400
     23 N23       -11.1369   -3.9990   54.4117 N.ar    1  ZINC000992031068   -0.5000
     24 C24       -11.7709   -4.0475   53.2597 C.ar    1  ZINC000992031068    0.3000
     25 N25       -13.0286   -3.6689   53.1395 N.ar    1  ZINC000992031068   -0.5100
     26 H26       -15.7981   -3.6285   54.2046 H       1  ZINC000992031068    0.0900
     27 H27       -15.3608   -1.9899   54.7449 H       1  ZINC000992031068    0.0900
     28 H28       -15.2996   -2.4024   53.0145 H       1  ZINC000992031068    0.0900
     29 H29       -13.6065   -2.7771   56.2842 H       1  ZINC000992031068    0.1600
     30 H30       -10.4525   -1.5807   56.6230 H       1  ZINC000992031068    0.4100
     31 H31        -9.2580   -3.2856   58.6755 H       1  ZINC000992031068    0.0700
     32 H32        -8.9298   -1.5543   58.4238 H       1  ZINC000992031068    0.0800
     33 H33       -11.6928   -2.3665   59.4137 H       1  ZINC000992031068    0.1000
     34 H34       -10.5896   -3.1348   61.4643 H       1  ZINC000992031068    0.0800
     35 H35        -9.0646   -2.2331   61.0611 H       1  ZINC000992031068    0.0900
     36 H36       -11.8473   -1.0537   61.7681 H       1  ZINC000992031068    0.1200
     37 H37        -9.0431   -0.1006   62.2538 H       1  ZINC000992031068    0.4000
     38 H38        -8.7088    1.0573   64.2213 H       1  ZINC000992031068    0.1200
     39 H39        -9.9029    2.3753   64.1488 H       1  ZINC000992031068    0.1100
     40 H40       -12.2842    1.5587   65.7516 H       1  ZINC000992031068    0.1500
     41 H41       -12.2229    0.7913   68.3054 H       1  ZINC000992031068    0.1800
     42 H42        -7.8730   -0.8657   66.3051 H       1  ZINC000992031068    0.0800
     43 H43        -7.5138    0.8218   65.8672 H       1  ZINC000992031068    0.0800
     44 H44        -7.4813    0.3191   67.5745 H       1  ZINC000992031068    0.0900
     45 H45        -9.7458    0.0267   59.7542 H       1  ZINC000992031068    0.0900
     46 H46       -11.5564    0.0724   59.6094 H       1  ZINC000992031068    0.0800
     47 H47       -11.2474   -4.4117   52.3882 H       1  ZINC000992031068    0.2100
@<TRIPOS>BOND
     1     1     2    1
     2     1    26    1
     3     1    27    1
     4     1    28    1
     5     2    25   ar
     6     2     3   ar
     7     3     4   ar
     8     3    29    1
     9     4     5    1
    10     4    23   ar
    11     5     6    2
    12     5     7   am
    13     7     8    1
    14     7    30    1
    15     8     9    1
    16     8    31    1
    17     8    32    1
    18     9    22    1
    19     9    10    1
    20     9    33    1
    21    10    11    1
    22    10    34    1
    23    10    35    1
    24    11    12    1
    25    11    22    1
    26    11    36    1
    27    12    13   am
    28    12    37    1
    29    13    14    2
    30    13    15    1
    31    15    16    1
    32    15    38    1
    33    15    39    1
    34    16    20    1
    35    16    17    2
    36    17    18    1
    37    17    40    1
    38    18    19    2
    39    18    41    1
    40    19    20    1
    41    20    21    1
    42    21    42    1
    43    21    43    1
    44    21    44    1
    45    22    45    1
    46    22    46    1
    47    23    24   ar
    48    24    25   ar
    49    24    47    1
@<TRIPOS>SUBSTRUCTURE
     1 ZINC000992031068        1 TEMP              0 ****  ****    0 ROOT


##########                                Name:    ZINC000637608314
##########                DOCK_Rotatable_Bonds:                   9
##########                         Heavy_Atoms:                  28
##########                    Molecular_Weight:             387.479
##########                DOCK_Rotatable_Bonds:                   9
##########                       Formal_Charge:           0.0499991
##########                     HBond_Acceptors:                   7
##########                        HBond_Donors:                   2
##########                         Heavy_Atoms:                  28
##########                          Grid_Score:          -34.907707
##########                     Grid_vdw_energy:          -35.041245
##########                      Grid_es_energy:            0.133537
##########           Internal_energy_repulsive:           21.240025

@<TRIPOS>MOLECULE
ZINC000637608314
 57 59 1 0 0
SMALL
USER_CHARGES


@<TRIPOS>ATOM
      1 C1        -13.4654   -4.3347   54.7753 C.3     1  ZINC000637608314   -0.1400
      2 C2        -13.7354   -4.4102   56.2795 C.3     1  ZINC000637608314   -0.0400
      3 C3        -15.0472   -3.6906   56.5989 C.3     1  ZINC000637608314   -0.1500
      4 C4        -13.8407   -5.8758   56.7057 C.3     1  ZINC000637608314   -0.1500
      5 C5        -12.6053   -3.7498   57.0264 C.2     1  ZINC000637608314    0.1900
      6 C6        -12.4639   -2.4048   56.9740 C.2     1  ZINC000637608314   -0.2400
      7 C7        -11.4149   -1.7839   57.6666 C.2     1  ZINC000637608314    0.0200
      8 C8        -10.5465   -2.5496   58.3877 C.2     1  ZINC000637608314   -0.2400
      9 C9         -9.4106   -1.9076   59.1417 C.3     1  ZINC000637608314    0.2100
     10 N10        -9.9463   -0.9306   60.0928 N.am    1  ZINC000637608314   -0.7300
     11 C11        -9.7992   -1.1293   61.4178 C.2     1  ZINC000637608314    0.7100
     12 O12        -9.2233   -2.1201   61.8236 O.2     1  ZINC000637608314   -0.5900
     13 N13       -10.2907   -0.2296   62.2927 N.am    1  ZINC000637608314   -0.6200
     14 C14       -10.9862    0.9634   61.8037 C.3     1  ZINC000637608314    0.2000
     15 C15       -12.3402    1.0592   62.4583 C.2     1  ZINC000637608314   -0.0400
     16 C16       -12.9201    2.1879   62.9047 C.2     1  ZINC000637608314   -0.1900
     17 C17       -14.1749    1.8191   63.4415 C.2     1  ZINC000637608314   -0.2200
     18 C18       -14.2870    0.4870   63.2909 C.2     1  ZINC000637608314   -0.0300
     19 O19       -13.1751    0.0330   62.6896 O.3     1  ZINC000637608314   -0.1700
     20 C20       -10.1292   -0.4447   63.7328 C.3     1  ZINC000637608314    0.1300
     21 C21        -9.2332    0.6504   64.3148 C.3     1  ZINC000637608314    0.0700
     22 H22        -8.3841    0.8235   63.6536 H       1  ZINC000637608314    0.0900
     23 C23        -8.7312    0.2287   65.7124 C.3     1  ZINC000637608314   -0.1500
     24 C24        -8.7948    1.5644   66.5023 C.3     1  ZINC000637608314   -0.1600
     25 C25       -10.0384    2.2277   65.8589 C.3     1  ZINC000637608314    0.0500
     26 O26        -9.9833    1.8609   64.4693 O.3     1  ZINC000637608314   -0.3800
     27 C27       -10.7226   -3.9436   58.4205 C.2     1  ZINC000637608314    0.5300
     28 O28        -9.9530   -4.6406   59.0623 O.2     1  ZINC000637608314   -0.5400
     29 N29       -11.7433   -4.5099   57.7492 N.am    1  ZINC000637608314   -0.6000
     30 H30       -13.3904   -3.2906   54.4716 H       1  ZINC000637608314    0.0700
     31 H31       -12.5309   -4.8474   54.5477 H       1  ZINC000637608314    0.0700
     32 H32       -14.2828   -4.8124   54.2351 H       1  ZINC000637608314    0.0700
     33 H33       -15.8646   -4.1683   56.0587 H       1  ZINC000637608314    0.0700
     34 H34       -15.2396   -3.7444   57.6705 H       1  ZINC000637608314    0.0600
     35 H35       -14.9722   -2.6464   56.2952 H       1  ZINC000637608314    0.0700
     36 H36       -12.9061   -6.3885   56.4781 H       1  ZINC000637608314    0.0700
     37 H37       -14.0330   -5.9296   57.7772 H       1  ZINC000637608314    0.0600
     38 H38       -14.6581   -6.3535   56.1654 H       1  ZINC000637608314    0.0700
     39 H39       -13.1583   -1.8102   56.3990 H       1  ZINC000637608314    0.1500
     40 H40       -11.2955   -0.7111   57.6291 H       1  ZINC000637608314    0.1400
     41 H41        -8.8545   -2.6736   59.6822 H       1  ZINC000637608314    0.0800
     42 H42        -8.7466   -1.4043   58.4390 H       1  ZINC000637608314    0.0800
     43 H43       -10.4068   -0.1406   59.7690 H       1  ZINC000637608314    0.4000
     44 H44       -10.4013    1.8505   62.0471 H       1  ZINC000637608314    0.1200
     45 H45       -11.1092    0.8948   60.7229 H       1  ZINC000637608314    0.0900
     46 H46       -12.5062    3.1845   62.8618 H       1  ZINC000637608314    0.1500
     47 H47       -14.9037    2.4799   63.8872 H       1  ZINC000637608314    0.1500
     48 H48       -15.1296   -0.1146   63.5979 H       1  ZINC000637608314    0.2000
     49 H49       -11.1053   -0.4108   64.2168 H       1  ZINC000637608314    0.0800
     50 H50        -9.6715   -1.4187   63.9056 H       1  ZINC000637608314    0.1000
     51 H51        -9.3940   -0.5153   66.1544 H       1  ZINC000637608314    0.0800
     52 H52        -7.7080   -0.1434   65.6612 H       1  ZINC000637608314    0.0900
     53 H53        -8.9514    1.3846   67.5660 H       1  ZINC000637608314    0.0800
     54 H54        -7.8994    2.1629   66.3347 H       1  ZINC000637608314    0.0800
     55 H55       -10.9507    1.8445   66.3162 H       1  ZINC000637608314    0.0600
     56 H56        -9.9871    3.3113   65.9657 H       1  ZINC000637608314    0.0800
     57 H57       -11.8596   -5.4725   57.7762 H       1  ZINC000637608314    0.4100
@<TRIPOS>BOND
     1     1     2    1
     2     1    30    1
     3     1    31    1
     4     1    32    1
     5     2     3    1
     6     2     4    1
     7     2     5    1
     8     3    33    1
     9     3    34    1
    10     3    35    1
    11     4    36    1
    12     4    37    1
    13     4    38    1
    14     5    29    1
    15     5     6    2
    16     6     7    1
    17     6    39    1
    18     7     8    2
    19     7    40    1
    20     8     9    1
    21     8    27    1
    22     9    10    1
    23     9    41    1
    24     9    42    1
    25    10    11   am
    26    10    43    1
    27    11    12    2
    28    11    13   am
    29    13    14    1
    30    13    20    1
    31    14    15    1
    32    14    44    1
    33    14    45    1
    34    15    19    1
    35    15    16    2
    36    16    17    1
    37    16    46    1
    38    17    18    2
    39    17    47    1
    40    18    19    1
    41    18    48    1
    42    20    21    1
    43    20    49    1
    44    20    50    1
    45    21    22    1
    46    21    26    1
    47    21    23    1
    48    23    24    1
    49    23    51    1
    50    23    52    1
    51    24    25    1
    52    24    53    1
    53    24    54    1
    54    25    26    1
    55    25    55    1
    56    25    56    1
    57    27    28    2
    58    27    29   am
    59    29    57    1
@<TRIPOS>SUBSTRUCTURE
     1 ZINC000637608314        1 TEMP              0 ****  ****    0 ROOT


##########                                Name:    ZINC000675319328
##########                DOCK_Rotatable_Bonds:                   7
##########                         Heavy_Atoms:                  26
##########                    Molecular_Weight:             363.475
##########                DOCK_Rotatable_Bonds:                   7
##########                       Formal_Charge:          -0.0200007
##########                     HBond_Acceptors:                   6
##########                        HBond_Donors:                   1
##########                         Heavy_Atoms:                  26
##########                          Grid_Score:          -34.887016
##########                     Grid_vdw_energy:          -34.164448
##########                      Grid_es_energy:           -0.722568
##########           Internal_energy_repulsive:           32.775066

@<TRIPOS>MOLECULE
ZINC000675319328
 56 58 1 0 0
SMALL
USER_CHARGES


@<TRIPOS>ATOM
      1 C1         -9.5967   -4.1512   60.1296 C.3     1  ZINC000675319328   -0.1600
      2 C2        -10.0487   -3.0400   59.1801 C.3     1  ZINC000675319328    0.1600
      3 H3         -9.4705   -3.0928   58.2576 H       1  ZINC000675319328    0.0900
      4 C4         -9.8263   -1.6797   59.8442 C.3     1  ZINC000675319328   -0.1200
      5 C5        -10.7599   -1.5413   61.0484 C.3     1  ZINC000675319328   -0.1200
      6 H6        -10.7346   -2.4417   61.6623 H       1  ZINC000675319328    0.0800
      7 C7        -10.3943   -0.2883   61.8900 C.3     1  ZINC000675319328   -0.1500
      8 C8        -11.7686    0.0556   62.5176 C.3     1  ZINC000675319328    0.0500
      9 O9        -12.7332   -0.2467   61.4971 O.3     1  ZINC000675319328   -0.3900
     10 C10       -12.2011   -1.2271   60.5930 C.3     1  ZINC000675319328    0.0500
     11 N11       -11.4717   -3.2075   58.8747 N.am    1  ZINC000675319328   -0.7400
     12 C12       -11.8710   -4.1874   58.0400 C.2     1  ZINC000675319328    0.7000
     13 O13       -11.0503   -4.9324   57.5404 O.2     1  ZINC000675319328   -0.5900
     14 N14       -13.1802   -4.3414   57.7590 N.am    1  ZINC000675319328   -0.6200
     15 C15       -14.1527   -3.4215   58.3809 C.3     1  ZINC000675319328    0.1300
     16 C16       -15.2306   -2.9842   57.3747 C.3     1  ZINC000675319328   -0.1300
     17 C17       -14.5942   -2.7338   56.0253 C.3     1  ZINC000675319328    0.0700
     18 N18       -14.6579   -3.9598   55.2315 N.3     1  ZINC000675319328   -0.5500
     19 C19       -14.8669   -3.6560   53.8095 C.3     1  ZINC000675319328    0.1000
     20 C20       -13.6529   -2.9500   53.2629 C.ar    1  ZINC000675319328   -0.0900
     21 C21       -12.6107   -3.6832   52.7267 C.ar    1  ZINC000675319328   -0.0900
     22 C22       -11.4969   -3.0368   52.2251 C.ar    1  ZINC000675319328   -0.1500
     23 C23       -11.4254   -1.6545   52.2592 C.ar    1  ZINC000675319328    0.1000
     24 F24       -10.3372   -1.0216   51.7686 F       1  ZINC000675319328   -0.1400
     25 C25       -12.4701   -0.9213   52.7959 C.ar    1  ZINC000675319328   -0.1500
     26 C26       -13.5850   -1.5696   53.2926 C.ar    1  ZINC000675319328   -0.0700
     27 C27       -13.5930   -4.8748   55.4032 C.3     1  ZINC000675319328    0.0500
     28 C28       -13.5787   -5.3999   56.8535 C.3     1  ZINC000675319328    0.1100
     29 H29        -9.7551   -5.1203   59.6564 H       1  ZINC000675319328    0.0600
     30 H30        -8.5379   -4.0266   60.3569 H       1  ZINC000675319328    0.0700
     31 H31       -10.1749   -4.0984   61.0521 H       1  ZINC000675319328    0.0500
     32 H32        -8.7910   -1.6025   60.1764 H       1  ZINC000675319328    0.0700
     33 H33       -10.0380   -0.8865   59.1273 H       1  ZINC000675319328    0.0900
     34 H34        -9.6612   -0.5316   62.6589 H       1  ZINC000675319328    0.0800
     35 H35       -10.0392    0.5224   61.2537 H       1  ZINC000675319328    0.0800
     36 H36       -11.9460   -0.5592   63.4000 H       1  ZINC000675319328    0.0600
     37 H37       -11.8118    1.1133   62.7776 H       1  ZINC000675319328    0.0900
     38 H38       -12.1868   -0.8261   59.5795 H       1  ZINC000675319328    0.0700
     39 H39       -12.8107   -2.1301   60.6261 H       1  ZINC000675319328    0.0700
     40 H40       -12.1265   -2.6132   59.2733 H       1  ZINC000675319328    0.3900
     41 H41       -14.6319   -3.9236   59.2213 H       1  ZINC000675319328    0.0600
     42 H42       -13.6266   -2.5395   58.7462 H       1  ZINC000675319328    0.0900
     43 H43       -15.9805   -3.7697   57.2820 H       1  ZINC000675319328    0.0800
     44 H44       -15.7060   -2.0689   57.7271 H       1  ZINC000675319328    0.0800
     45 H45       -15.1325   -1.9379   55.5106 H       1  ZINC000675319328    0.0700
     46 H46       -13.5530   -2.4418   56.1620 H       1  ZINC000675319328    0.0400
     47 H47       -15.0263   -4.5835   53.2595 H       1  ZINC000675319328    0.0900
     48 H48       -15.7408   -3.0139   53.6997 H       1  ZINC000675319328    0.0400
     49 H49       -12.6667   -4.7613   52.7002 H       1  ZINC000675319328    0.1300
     50 H50       -10.6825   -3.6098   51.8069 H       1  ZINC000675319328    0.1400
     51 H51       -12.4152    0.1570   52.8234 H       1  ZINC000675319328    0.1400
     52 H52       -14.4001   -0.9980   53.7110 H       1  ZINC000675319328    0.1300
     53 H53       -13.7202   -5.7110   54.7156 H       1  ZINC000675319328    0.0900
     54 H54       -12.6483   -4.3744   55.1910 H       1  ZINC000675319328    0.0300
     55 H55       -12.8729   -6.2269   56.9329 H       1  ZINC000675319328    0.0700
     56 H56       -14.5757   -5.7477   57.1233 H       1  ZINC000675319328    0.0900
@<TRIPOS>BOND
     1     1     2    1
     2     1    29    1
     3     1    30    1
     4     1    31    1
     5     2     3    1
     6     2     4    1
     7     2    11    1
     8     4     5    1
     9     4    32    1
    10     4    33    1
    11     5     6    1
    12     5    10    1
    13     5     7    1
    14     7     8    1
    15     7    34    1
    16     7    35    1
    17     8     9    1
    18     8    36    1
    19     8    37    1
    20     9    10    1
    21    10    38    1
    22    10    39    1
    23    11    12   am
    24    11    40    1
    25    12    13    2
    26    12    14   am
    27    14    28    1
    28    14    15    1
    29    15    16    1
    30    15    41    1
    31    15    42    1
    32    16    17    1
    33    16    43    1
    34    16    44    1
    35    17    18    1
    36    17    45    1
    37    17    46    1
    38    18    19    1
    39    18    27    1
    40    19    20    1
    41    19    47    1
    42    19    48    1
    43    20    26   ar
    44    20    21   ar
    45    21    22   ar
    46    21    49    1
    47    22    23   ar
    48    22    50    1
    49    23    24    1
    50    23    25   ar
    51    25    26   ar
    52    25    51    1
    53    26    52    1
    54    27    28    1
    55    27    53    1
    56    27    54    1
    57    28    55    1
    58    28    56    1
@<TRIPOS>SUBSTRUCTURE
     1 ZINC000675319328        1 TEMP              0 ****  ****    0 ROOT


##########                                Name:    ZINC000188380122
##########                DOCK_Rotatable_Bonds:                   6
##########                         Heavy_Atoms:                  27
##########                    Molecular_Weight:             396.433
##########                DOCK_Rotatable_Bonds:                   6
##########                       Formal_Charge:           0.0299998
##########                     HBond_Acceptors:                   8
##########                        HBond_Donors:                   1
##########                         Heavy_Atoms:                  27
##########                          Grid_Score:          -34.874790
##########                     Grid_vdw_energy:          -33.777164
##########                      Grid_es_energy:           -1.097628
##########           Internal_energy_repulsive:            8.748189

@<TRIPOS>MOLECULE
ZINC000188380122
 46 49 1 0 0
SMALL
USER_CHARGES


@<TRIPOS>ATOM
      1 O1        -13.5867   -5.6430   54.7710 O.2     1  ZINC000188380122   -0.5200
      2 C2        -13.5454   -4.5897   55.3709 C.2     1  ZINC000188380122    0.5200
      3 C3        -13.9064   -4.5409   56.8332 C.3     1  ZINC000188380122   -0.0700
      4 C4        -12.6528   -4.3855   57.6552 C.2     1  ZINC000188380122    0.0900
      5 C5        -11.6148   -5.2196   57.5319 C.2     1  ZINC000188380122   -0.2400
      6 S6        -10.3580   -4.7051   58.6555 S.3     1  ZINC000188380122    0.1000
      7 C7        -11.3878   -3.3804   59.1929 C.2     1  ZINC000188380122    0.1100
      8 C8        -11.0327   -2.3812   60.2234 C.ar    1  ZINC000188380122   -0.0200
      9 C9         -9.7653   -2.3967   60.8068 C.ar    1  ZINC000188380122   -0.0400
     10 C10        -9.4399   -1.4612   61.7676 C.ar    1  ZINC000188380122   -0.1200
     11 C11       -10.3673   -0.5097   62.1528 C.ar    1  ZINC000188380122   -0.0600
     12 C12       -11.6259   -0.4891   61.5780 C.ar    1  ZINC000188380122   -0.1800
     13 C13       -12.6297    0.5514   62.0035 C.3     1  ZINC000188380122    0.5100
     14 F14       -13.4239    0.0390   63.0349 F       1  ZINC000188380122   -0.1700
     15 F15       -11.9565    1.6914   62.4556 F       1  ZINC000188380122   -0.1700
     16 F16       -13.4405    0.8897   60.9147 F       1  ZINC000188380122   -0.1700
     17 C17       -11.9617   -1.4151   60.6124 C.ar    1  ZINC000188380122   -0.0500
     18 N18       -12.5097   -3.4194   58.5329 N.2     1  ZINC000188380122   -0.4300
     19 N19       -13.1713   -3.4639   54.7313 N.am    1  ZINC000188380122   -0.7200
     20 C20       -12.8205   -3.5114   53.3097 C.3     1  ZINC000188380122    0.1300
     21 H21       -13.4565   -4.1877   52.7386 H       1  ZINC000188380122    0.1200
     22 C22       -11.3167   -3.7129   53.0514 C.3     1  ZINC000188380122   -0.1800
     23 C23       -11.4765   -2.7140   51.8992 C.3     1  ZINC000188380122    0.0900
     24 H24       -11.7962   -3.2057   50.9804 H       1  ZINC000188380122    0.1200
     25 O25       -10.3755   -1.8698   51.6745 O.3     1  ZINC000188380122   -0.3700
     26 C26       -10.0422   -0.8875   52.6378 C.3     1  ZINC000188380122    0.0700
     27 C27       -11.2808   -0.1019   53.0662 C.3     1  ZINC000188380122   -0.1600
     28 C28       -12.2818   -1.0737   53.6986 C.3     1  ZINC000188380122   -0.1100
     29 C29       -12.6615   -2.1194   52.6650 C.3     1  ZINC000188380122   -0.1500
     30 H30       -13.4985   -1.8196   52.0344 H       1  ZINC000188380122    0.0900
     31 H31       -14.5680   -3.6941   57.0162 H       1  ZINC000188380122    0.1100
     32 H32       -14.4125   -5.4646   57.1137 H       1  ZINC000188380122    0.1100
     33 H33       -11.5568   -6.0631   56.8601 H       1  ZINC000188380122    0.1800
     34 H34        -9.0407   -3.1394   60.5074 H       1  ZINC000188380122    0.1500
     35 H35        -8.4594   -1.4719   62.2199 H       1  ZINC000188380122    0.1400
     36 H36       -10.1080    0.2199   62.9057 H       1  ZINC000188380122    0.1500
     37 H37       -12.9443   -1.3979   60.1645 H       1  ZINC000188380122    0.1400
     38 H38       -13.1345   -2.6223   55.2121 H       1  ZINC000188380122    0.4000
     39 H39       -10.6809   -3.3514   53.8597 H       1  ZINC000188380122    0.0900
     40 H40       -11.0592   -4.7206   52.7253 H       1  ZINC000188380122    0.0800
     41 H41        -9.6073   -1.3745   53.5105 H       1  ZINC000188380122    0.0500
     42 H42        -9.3119   -0.2002   52.2108 H       1  ZINC000188380122    0.1000
     43 H43       -10.9981    0.6579   53.7949 H       1  ZINC000188380122    0.0800
     44 H44       -11.7322    0.3731   52.1951 H       1  ZINC000188380122    0.0800
     45 H45       -11.8244   -1.5601   54.5601 H       1  ZINC000188380122    0.0700
     46 H46       -13.1713   -0.5284   54.0138 H       1  ZINC000188380122    0.0800
@<TRIPOS>BOND
     1     1     2    2
     2     2     3    1
     3     2    19   am
     4     3     4    1
     5     3    31    1
     6     3    32    1
     7     4    18    1
     8     4     5    2
     9     5     6    1
    10     5    33    1
    11     6     7    1
    12     7     8    1
    13     7    18    2
    14     8    17   ar
    15     8     9   ar
    16     9    10   ar
    17     9    34    1
    18    10    11   ar
    19    10    35    1
    20    11    12   ar
    21    11    36    1
    22    12    13    1
    23    12    17   ar
    24    13    14    1
    25    13    15    1
    26    13    16    1
    27    17    37    1
    28    19    20    1
    29    19    38    1
    30    20    21    1
    31    20    29    1
    32    20    22    1
    33    22    23    1
    34    22    39    1
    35    22    40    1
    36    23    24    1
    37    23    29    1
    38    23    25    1
    39    25    26    1
    40    26    27    1
    41    26    41    1
    42    26    42    1
    43    27    28    1
    44    27    43    1
    45    27    44    1
    46    28    29    1
    47    28    45    1
    48    28    46    1
    49    29    30    1
@<TRIPOS>SUBSTRUCTURE
     1 ZINC000188380122        1 TEMP              0 ****  ****    0 ROOT


##########                                Name:    ZINC000175255939
##########                DOCK_Rotatable_Bonds:                   8
##########                         Heavy_Atoms:                  28
##########                    Molecular_Weight:             394.375
##########                DOCK_Rotatable_Bonds:                   8
##########                       Formal_Charge:          -0.0399999
##########                     HBond_Acceptors:                   9
##########                        HBond_Donors:                   1
##########                         Heavy_Atoms:                  28
##########                          Grid_Score:          -34.866554
##########                     Grid_vdw_energy:          -33.289467
##########                      Grid_es_energy:           -1.577086
##########           Internal_energy_repulsive:            8.698583

@<TRIPOS>MOLECULE
ZINC000175255939
 48 50 1 0 0
SMALL
USER_CHARGES


@<TRIPOS>ATOM
      1 C1        -13.9473    2.0553   68.1352 C.3     1  ZINC000175255939    0.0300
      2 O2        -12.6743    1.7270   67.5186 O.3     1  ZINC000175255939   -0.3600
      3 C3        -11.8199    2.7407   67.3079 C.2     1  ZINC000175255939    0.4600
      4 O4        -12.1257    3.8650   67.6277 O.2     1  ZINC000175255939   -0.5000
      5 C5        -10.4792    2.4762   66.6726 C.3     1  ZINC000175255939   -0.0800
      6 H6        -10.1642    3.3550   66.1098 H       1  ZINC000175255939    0.1100
      7 C7         -9.4493    2.1724   67.7625 C.3     1  ZINC000175255939   -0.1200
      8 C8         -8.0882    1.9039   67.1173 C.3     1  ZINC000175255939   -0.1100
      9 C9         -8.1992    0.7059   66.1722 C.3     1  ZINC000175255939   -0.1200
     10 C10        -9.2290    1.0098   65.0823 C.3     1  ZINC000175255939   -0.1000
     11 H11        -8.9140    1.8884   64.5195 H       1  ZINC000175255939    0.1100
     12 C12        -9.3383   -0.1703   64.1514 C.2     1  ZINC000175255939    0.5100
     13 O13        -9.1566   -1.2933   64.5719 O.2     1  ZINC000175255939   -0.4800
     14 N14        -9.6381    0.0223   62.8516 N.am    1  ZINC000175255939   -0.6300
     15 C15        -9.7372   -1.0643   61.9941 C.2     1  ZINC000175255939    0.2100
     16 C16       -10.6048   -1.2048   60.9523 C.2     1  ZINC000175255939   -0.2600
     17 C17       -10.2890   -2.4802   60.4162 C.2     1  ZINC000175255939    0.0900
     18 C18       -10.9343   -3.1431   59.2561 C.ar    1  ZINC000175255939   -0.0500
     19 C19       -12.0719   -2.5841   58.6764 C.ar    1  ZINC000175255939   -0.0600
     20 C20       -12.6695   -3.2023   57.5985 C.ar    1  ZINC000175255939   -0.1300
     21 C21       -12.1392   -4.3809   57.0907 C.ar    1  ZINC000175255939    0.1200
     22 O22       -12.7300   -4.9877   56.0286 O.3     1  ZINC000175255939   -0.3200
     23 C23       -14.0761   -5.4346   56.2028 C.3     1  ZINC000175255939    0.4100
     24 F24       -14.7510   -5.3698   54.9790 F       1  ZINC000175255939   -0.2000
     25 F25       -14.0730   -6.7553   56.6643 F       1  ZINC000175255939   -0.2000
     26 C26       -11.0060   -4.9400   57.6661 C.ar    1  ZINC000175255939   -0.1900
     27 C27       -10.4006   -4.3228   58.7403 C.ar    1  ZINC000175255939   -0.0500
     28 N28        -9.3125   -2.9559   61.1515 N.2     1  ZINC000175255939   -0.3600
     29 O29        -8.9934   -2.1817   62.0235 O.3     1  ZINC000175255939    0.1200
     30 C30       -10.5901    1.2781   65.7274 C.3     1  ZINC000175255939   -0.0900
     31 H31       -14.5410    1.1482   68.2481 H       1  ZINC000175255939    0.1000
     32 H32       -13.7725    2.4996   69.1151 H       1  ZINC000175255939    0.0600
     33 H33       -14.4839    2.7646   67.5051 H       1  ZINC000175255939    0.0600
     34 H34        -9.3703    3.0259   68.4357 H       1  ZINC000175255939    0.0800
     35 H35        -9.7644    1.2936   68.3251 H       1  ZINC000175255939    0.0700
     36 H36        -7.7731    2.7827   66.5546 H       1  ZINC000175255939    0.0700
     37 H37        -7.3545    1.6874   67.8938 H       1  ZINC000175255939    0.0800
     38 H38        -7.2295    0.5146   65.7126 H       1  ZINC000175255939    0.0700
     39 H39        -8.5141   -0.1729   66.7349 H       1  ZINC000175255939    0.0800
     40 H40        -9.7848    0.9203   62.5155 H       1  ZINC000175255939    0.4300
     41 H41       -11.3573   -0.5079   60.6139 H       1  ZINC000175255939    0.1800
     42 H42       -12.4852   -1.6678   59.0715 H       1  ZINC000175255939    0.1400
     43 H43       -13.5510   -2.7696   57.1490 H       1  ZINC000175255939    0.1400
     44 H44       -14.5795   -4.7969   56.9295 H       1  ZINC000175255939    0.1900
     45 H45       -10.5958   -5.8567   57.2691 H       1  ZINC000175255939    0.1400
     46 H46        -9.5190   -4.7580   59.1872 H       1  ZINC000175255939    0.1400
     47 H47       -10.9052    0.3995   66.2901 H       1  ZINC000175255939    0.0900
     48 H48       -11.3239    1.4947   64.9509 H       1  ZINC000175255939    0.0800
@<TRIPOS>BOND
     1     1     2    1
     2     1    31    1
     3     1    32    1
     4     1    33    1
     5     2     3    1
     6     3     4    2
     7     3     5    1
     8     5     6    1
     9     5    30    1
    10     5     7    1
    11     7     8    1
    12     7    34    1
    13     7    35    1
    14     8     9    1
    15     8    36    1
    16     8    37    1
    17     9    10    1
    18     9    38    1
    19     9    39    1
    20    10    11    1
    21    10    12    1
    22    10    30    1
    23    12    13    2
    24    12    14   am
    25    14    15    1
    26    14    40    1
    27    15    29    1
    28    15    16    2
    29    16    17    1
    30    16    41    1
    31    17    18    1
    32    17    28    2
    33    18    27   ar
    34    18    19   ar
    35    19    20   ar
    36    19    42    1
    37    20    21   ar
    38    20    43    1
    39    21    22    1
    40    21    26   ar
    41    22    23    1
    42    23    24    1
    43    23    25    1
    44    23    44    1
    45    26    27   ar
    46    26    45    1
    47    27    46    1
    48    28    29    1
    49    30    47    1
    50    30    48    1
@<TRIPOS>SUBSTRUCTURE
     1 ZINC000175255939        1 TEMP              0 ****  ****    0 ROOT


##########                                Name:    ZINC000745364361
##########                DOCK_Rotatable_Bonds:                   8
##########                         Heavy_Atoms:                  29
##########                    Molecular_Weight:             398.434
##########                DOCK_Rotatable_Bonds:                   8
##########                       Formal_Charge:          0.00999923
##########                     HBond_Acceptors:                   7
##########                        HBond_Donors:                   1
##########                         Heavy_Atoms:                  29
##########                          Grid_Score:          -34.811279
##########                     Grid_vdw_energy:          -34.411446
##########                      Grid_es_energy:           -0.399835
##########           Internal_energy_repulsive:            9.874501

@<TRIPOS>MOLECULE
ZINC000745364361
 52 54 1 0 0
SMALL
USER_CHARGES


@<TRIPOS>ATOM
      1 C1        -14.4977   -5.1797   57.1210 C.3     1  ZINC000745364361   -0.1700
      2 C2        -13.9574   -3.8078   56.7125 C.3     1  ZINC000745364361    0.0700
      3 H3        -14.7905   -3.1375   56.5011 H       1  ZINC000745364361    0.1100
      4 O4        -13.1340   -3.9459   55.5245 O.3     1  ZINC000745364361   -0.3200
      5 C5        -12.8475   -2.8228   54.8477 C.2     1  ZINC000745364361    0.4700
      6 O6        -13.0063   -1.7452   55.3706 O.2     1  ZINC000745364361   -0.4900
      7 C7        -12.3276   -2.9059   53.4356 C.3     1  ZINC000745364361   -0.0400
      8 H8        -11.5616   -2.1452   53.2850 H       1  ZINC000745364361    0.1200
      9 C9        -11.7247   -4.2914   53.1949 C.3     1  ZINC000745364361   -0.1400
     10 C10       -13.4606   -2.6763   52.4689 C.ar    1  ZINC000745364361   -0.0500
     11 C11       -14.6945   -3.2546   52.7005 C.ar    1  ZINC000745364361   -0.1000
     12 C12       -15.7348   -3.0448   51.8144 C.ar    1  ZINC000745364361   -0.0900
     13 C13       -15.5423   -2.2565   50.6960 C.ar    1  ZINC000745364361   -0.1500
     14 C14       -14.3067   -1.6761   50.4632 C.ar    1  ZINC000745364361    0.1000
     15 F15       -14.1172   -0.9053   49.3700 F       1  ZINC000745364361   -0.1400
     16 C16       -13.2672   -1.8827   51.3538 C.ar    1  ZINC000745364361   -0.1400
     17 C17       -13.1280   -3.2399   57.8353 C.2     1  ZINC000745364361    0.5200
     18 O18       -12.0927   -3.7827   58.1591 O.2     1  ZINC000745364361   -0.5000
     19 N19       -13.5366   -2.1289   58.4797 N.am    1  ZINC000745364361   -0.6700
     20 C20       -12.7657   -1.6011   59.5233 C.ar    1  ZINC000745364361    0.1200
     21 C21       -11.5316   -1.0249   59.2522 C.ar    1  ZINC000745364361   -0.1100
     22 C22       -10.7718   -0.5047   60.2807 C.ar    1  ZINC000745364361   -0.1400
     23 C23       -11.2418   -0.5573   61.5864 C.ar    1  ZINC000745364361    0.1500
     24 N24       -10.4706   -0.0299   62.6300 N.am    1  ZINC000745364361   -0.5600
     25 C25       -10.7522    1.2415   63.3070 C.3     1  ZINC000745364361    0.0900
     26 C26        -9.9444    1.1955   64.6228 C.3     1  ZINC000745364361   -0.1300
     27 C27        -8.8026    0.2187   64.2580 C.3     1  ZINC000745364361   -0.1500
     28 C28        -9.3810   -0.6260   63.1441 C.2     1  ZINC000745364361    0.5200
     29 O29        -8.9238   -1.6836   62.7652 O.2     1  ZINC000745364361   -0.5100
     30 C30       -12.4765   -1.1322   61.8573 C.ar    1  ZINC000745364361   -0.1400
     31 C31       -13.2379   -1.6489   60.8283 C.ar    1  ZINC000745364361   -0.0900
     32 H32       -15.0976   -5.5905   56.3089 H       1  ZINC000745364361    0.0800
     33 H33       -13.6646   -5.8500   57.3323 H       1  ZINC000745364361    0.0800
     34 H34       -15.1158   -5.0759   58.0127 H       1  ZINC000745364361    0.0800
     35 H35       -12.4907   -5.0521   53.3455 H       1  ZINC000745364361    0.0700
     36 H36       -11.3487   -4.3516   52.1736 H       1  ZINC000745364361    0.0800
     37 H37       -10.9052   -4.4575   53.8941 H       1  ZINC000745364361    0.0800
     38 H38       -14.8458   -3.8713   53.5741 H       1  ZINC000745364361    0.1300
     39 H39       -16.6984   -3.4976   51.9962 H       1  ZINC000745364361    0.1400
     40 H40       -16.3549   -2.0934   50.0037 H       1  ZINC000745364361    0.1400
     41 H41       -12.3033   -1.4303   51.1734 H       1  ZINC000745364361    0.1400
     42 H42       -14.3645   -1.6949   58.2208 H       1  ZINC000745364361    0.4100
     43 H43       -11.1661   -0.9840   58.2367 H       1  ZINC000745364361    0.1300
     44 H44        -9.8118   -0.0572   60.0699 H       1  ZINC000745364361    0.1600
     45 H45       -10.4224    2.0780   62.6909 H       1  ZINC000745364361    0.0800
     46 H46       -11.8175    1.3270   63.5212 H       1  ZINC000745364361    0.0900
     47 H47        -9.5501    2.1804   64.8731 H       1  ZINC000745364361    0.1000
     48 H48       -10.5499    0.8006   65.4387 H       1  ZINC000745364361    0.0900
     49 H49        -7.9274    0.7676   63.9106 H       1  ZINC000745364361    0.1100
     50 H50        -8.5472   -0.4063   65.1137 H       1  ZINC000745364361    0.1100
     51 H51       -12.8421   -1.1729   62.8727 H       1  ZINC000745364361    0.1300
     52 H52       -14.1982   -2.0962   61.0391 H       1  ZINC000745364361    0.1400
@<TRIPOS>BOND
     1     1     2    1
     2     1    32    1
     3     1    33    1
     4     1    34    1
     5     2     3    1
     6     2     4    1
     7     2    17    1
     8     4     5    1
     9     5     6    2
    10     5     7    1
    11     7     8    1
    12     7     9    1
    13     7    10    1
    14     9    35    1
    15     9    36    1
    16     9    37    1
    17    10    16   ar
    18    10    11   ar
    19    11    12   ar
    20    11    38    1
    21    12    13   ar
    22    12    39    1
    23    13    14   ar
    24    13    40    1
    25    14    15    1
    26    14    16   ar
    27    16    41    1
    28    17    18    2
    29    17    19   am
    30    19    20    1
    31    19    42    1
    32    20    31   ar
    33    20    21   ar
    34    21    22   ar
    35    21    43    1
    36    22    23   ar
    37    22    44    1
    38    23    24    1
    39    23    30   ar
    40    24    28   am
    41    24    25    1
    42    25    26    1
    43    25    45    1
    44    25    46    1
    45    26    27    1
    46    26    47    1
    47    26    48    1
    48    27    28    1
    49    27    49    1
    50    27    50    1
    51    28    29    2
    52    30    31   ar
    53    30    51    1
    54    31    52    1
@<TRIPOS>SUBSTRUCTURE
     1 ZINC000745364361        1 TEMP              0 ****  ****    0 ROOT


##########                                Name:    ZINC000555499135
##########                DOCK_Rotatable_Bonds:                   8
##########                         Heavy_Atoms:                  26
##########                    Molecular_Weight:             377.554
##########                DOCK_Rotatable_Bonds:                   8
##########                       Formal_Charge:           0.0399999
##########                     HBond_Acceptors:                   7
##########                        HBond_Donors:                   0
##########                         Heavy_Atoms:                  26
##########                          Grid_Score:          -34.798454
##########                     Grid_vdw_energy:          -34.155369
##########                      Grid_es_energy:           -0.643086
##########           Internal_energy_repulsive:           14.361339

@<TRIPOS>MOLECULE
ZINC000555499135
 57 59 1 0 0
SMALL
USER_CHARGES


@<TRIPOS>ATOM
      1 C1         -6.4000    2.1143   51.5148 C.3     1  ZINC000555499135   -0.1500
      2 C2         -6.6417    0.7843   50.7982 C.3     1  ZINC000555499135   -0.0500
      3 C3         -7.8691    0.1219   51.3689 C.2     1  ZINC000555499135   -0.2100
      4 C4         -8.9212    0.7462   51.9067 C.2     1  ZINC000555499135    0.0300
      5 N5         -9.8724   -0.0579   52.3372 N.2     1  ZINC000555499135   -0.4500
      6 C6         -9.6812   -1.3257   52.1925 C.2     1  ZINC000555499135    0.0400
      7 C7        -10.6494   -2.3984   52.6203 C.3     1  ZINC000555499135    0.1500
      8 N8        -11.7229   -1.7973   53.4228 N.3     1  ZINC000555499135   -0.4500
      9 C9        -13.0308   -1.9928   52.7831 C.3     1  ZINC000555499135    0.0100
     10 C10       -11.7209   -2.3025   54.7133 C.2     1  ZINC000555499135    0.3500
     11 N11       -11.4887   -3.5454   55.0639 N.2     1  ZINC000555499135   -0.3100
     12 N12       -11.5665   -3.6605   56.3416 N.2     1  ZINC000555499135   -0.2900
     13 C13       -11.8505   -2.5073   56.8776 C.2     1  ZINC000555499135    0.2100
     14 C14       -12.0260   -2.2244   58.3474 C.3     1  ZINC000555499135   -0.0300
     15 C15       -10.8508   -2.8200   59.1253 C.3     1  ZINC000555499135   -0.0900
     16 C16        -9.5671   -2.0709   58.7625 C.3     1  ZINC000555499135   -0.1500
     17 C17       -11.1127   -2.6859   60.6267 C.3     1  ZINC000555499135   -0.1500
     18 N18       -11.9539   -1.6001   55.8597 N.pl3   1  ZINC000555499135   -0.4600
     19 C19       -12.2599   -0.1721   55.9753 C.3     1  ZINC000555499135    0.1100
     20 C20       -11.0283    0.5731   56.4935 C.3     1  ZINC000555499135    0.0700
     21 H21       -10.7299    0.1571   57.4558 H       1  ZINC000555499135    0.0700
     22 C22       -11.3628    2.0576   56.6609 C.3     1  ZINC000555499135   -0.1500
     23 C23       -10.1089    2.8068   57.1222 C.3     1  ZINC000555499135   -0.1200
     24 C24        -8.9862    2.5748   56.1063 C.3     1  ZINC000555499135   -0.1600
     25 C25        -8.7435    1.0702   55.9603 C.3     1  ZINC000555499135    0.0600
     26 O26        -9.9564    0.4298   55.5594 O.3     1  ZINC000555499135   -0.3700
     27 S27        -8.1738   -1.6121   51.4382 S.3     1  ZINC000555499135    0.1200
     28 H28        -7.2629    2.7651   51.3736 H       1  ZINC000555499135    0.0600
     29 H29        -6.2527    1.9320   52.5793 H       1  ZINC000555499135    0.0600
     30 H30        -5.5123    2.5934   51.1020 H       1  ZINC000555499135    0.0700
     31 H31        -6.7890    0.9666   49.7338 H       1  ZINC000555499135    0.0900
     32 H32        -5.7787    0.1335   50.9394 H       1  ZINC000555499135    0.0800
     33 H33        -8.9866    1.8215   51.9822 H       1  ZINC000555499135    0.1800
     34 H34       -11.0779   -2.8740   51.7382 H       1  ZINC000555499135    0.0800
     35 H35       -10.1244   -3.1447   53.2166 H       1  ZINC000555499135    0.1200
     36 H36       -13.2821   -3.0534   52.7866 H       1  ZINC000555499135    0.0500
     37 H37       -13.7909   -1.4376   53.3329 H       1  ZINC000555499135    0.0800
     38 H38       -12.9900   -1.6323   51.7552 H       1  ZINC000555499135    0.0900
     39 H39       -12.0596   -1.1469   58.5085 H       1  ZINC000555499135    0.1000
     40 H40       -12.9566   -2.6730   58.6950 H       1  ZINC000555499135    0.1000
     41 H41       -10.7417   -3.8736   58.8682 H       1  ZINC000555499135    0.0800
     42 H42        -9.4019   -2.1327   57.6869 H       1  ZINC000555499135    0.0500
     43 H43        -9.6612   -1.0254   59.0562 H       1  ZINC000555499135    0.0600
     44 H44        -8.7235   -2.5208   59.2861 H       1  ZINC000555499135    0.0600
     45 H45       -12.0273   -3.2196   60.8851 H       1  ZINC000555499135    0.0600
     46 H46       -10.2755   -3.1102   61.1809 H       1  ZINC000555499135    0.0600
     47 H47       -11.2219   -1.6322   60.8837 H       1  ZINC000555499135    0.0600
     48 H48       -12.5371    0.2204   54.9969 H       1  ZINC000555499135    0.1100
     49 H49       -13.0879   -0.0331   56.6704 H       1  ZINC000555499135    0.1200
     50 H50       -11.7002    2.4647   55.7076 H       1  ZINC000555499135    0.0800
     51 H51       -12.1501    2.1719   57.4060 H       1  ZINC000555499135    0.0800
     52 H52       -10.3251    3.8730   57.1895 H       1  ZINC000555499135    0.0700
     53 H53        -9.7998    2.4338   58.0987 H       1  ZINC000555499135    0.0600
     54 H54        -9.2757    2.9922   55.1419 H       1  ZINC000555499135    0.0700
     55 H55        -8.0738    3.0587   56.4547 H       1  ZINC000555499135    0.0800
     56 H56        -7.9750    0.8974   55.2070 H       1  ZINC000555499135    0.1000
     57 H57        -8.4151    0.6607   56.9156 H       1  ZINC000555499135    0.0500
@<TRIPOS>BOND
     1     1     2    1
     2     1    28    1
     3     1    29    1
     4     1    30    1
     5     2     3    1
     6     2    31    1
     7     2    32    1
     8     3    27    1
     9     3     4    2
    10     4     5    1
    11     4    33    1
    12     5     6    2
    13     6     7    1
    14     6    27    1
    15     7     8    1
    16     7    34    1
    17     7    35    1
    18     8     9    1
    19     8    10    1
    20     9    36    1
    21     9    37    1
    22     9    38    1
    23    10    18    1
    24    10    11    2
    25    11    12    1
    26    12    13    2
    27    13    14    1
    28    13    18    1
    29    14    15    1
    30    14    39    1
    31    14    40    1
    32    15    16    1
    33    15    17    1
    34    15    41    1
    35    16    42    1
    36    16    43    1
    37    16    44    1
    38    17    45    1
    39    17    46    1
    40    17    47    1
    41    18    19    1
    42    19    20    1
    43    19    48    1
    44    19    49    1
    45    20    21    1
    46    20    26    1
    47    20    22    1
    48    22    23    1
    49    22    50    1
    50    22    51    1
    51    23    24    1
    52    23    52    1
    53    23    53    1
    54    24    25    1
    55    24    54    1
    56    24    55    1
    57    25    26    1
    58    25    56    1
    59    25    57    1
@<TRIPOS>SUBSTRUCTURE
     1 ZINC000555499135        1 TEMP              0 ****  ****    0 ROOT


##########                                Name:    ZINC000011157684
##########                DOCK_Rotatable_Bonds:                   7
##########                         Heavy_Atoms:                  25
##########                    Molecular_Weight:             374.866
##########                DOCK_Rotatable_Bonds:                   7
##########                       Formal_Charge:           0.0400001
##########                     HBond_Acceptors:                   6
##########                        HBond_Donors:                   2
##########                         Heavy_Atoms:                  25
##########                          Grid_Score:          -34.747894
##########                     Grid_vdw_energy:          -34.330803
##########                      Grid_es_energy:           -0.417090
##########           Internal_energy_repulsive:            7.105628

@<TRIPOS>MOLECULE
ZINC000011157684
 41 43 1 0 0
SMALL
USER_CHARGES


@<TRIPOS>ATOM
      1 O1        -10.4338   -5.2249   58.9758 O.2     1  ZINC000011157684   -0.5200
      2 C2        -10.1726   -4.0425   59.0445 C.2     1  ZINC000011157684    0.5100
      3 C3         -9.4314   -3.5029   60.2405 C.3     1  ZINC000011157684    0.1000
      4 N4         -9.2774   -2.0522   60.1059 N.pl3   1  ZINC000011157684   -0.7300
      5 C5         -9.5198   -1.2182   61.2026 C.ar    1  ZINC000011157684    0.2200
      6 C6         -9.0497   -1.5698   62.4604 C.ar    1  ZINC000011157684   -0.1600
      7 C7         -9.2896   -0.7445   63.5424 C.ar    1  ZINC000011157684   -0.0900
      8 C8         -9.9989    0.4322   63.3732 C.ar    1  ZINC000011157684    0.0500
      9 F9        -10.2326    1.2371   64.4328 F       1  ZINC000011157684   -0.1400
     10 C10       -10.4689    0.7860   62.1195 C.ar    1  ZINC000011157684   -0.0900
     11 C11       -10.2268   -0.0335   61.0335 C.ar    1  ZINC000011157684   -0.0900
     12 Cl12      -10.8160    0.4099   59.4619 Cl      1  ZINC000011157684   -0.0500
     13 N13       -10.5403   -3.2121   58.0486 N.am    1  ZINC000011157684   -0.7200
     14 C14       -11.2609   -3.7368   56.8860 C.3     1  ZINC000011157684    0.2600
     15 H15       -10.7804   -4.6536   56.5440 H       1  ZINC000011157684    0.1200
     16 C16       -11.2394   -2.7150   55.7785 C.2     1  ZINC000011157684   -0.1900
     17 C17       -11.4214   -2.9802   54.4840 C.2     1  ZINC000011157684   -0.1200
     18 C18       -11.3587   -1.8783   53.6485 C.2     1  ZINC000011157684   -0.1300
     19 C19       -11.1255   -0.7183   54.2645 C.2     1  ZINC000011157684   -0.2100
     20 S20       -10.9778   -0.9894   55.9961 S.3     1  ZINC000011157684    0.1100
     21 C21       -12.6881   -4.0310   57.2704 C.ar    1  ZINC000011157684   -0.0900
     22 C22       -13.3811   -5.0427   56.6324 C.ar    1  ZINC000011157684   -0.1100
     23 C23       -14.6902   -5.3126   56.9849 C.ar    1  ZINC000011157684   -0.1100
     24 C24       -15.3061   -4.5712   57.9758 C.ar    1  ZINC000011157684   -0.1100
     25 C25       -14.6127   -3.5602   58.6144 C.ar    1  ZINC000011157684   -0.1100
     26 C26       -13.3023   -3.2930   58.2649 C.ar    1  ZINC000011157684   -0.1000
     27 H27        -9.9935   -3.7259   61.1474 H       1  ZINC000011157684    0.1000
     28 H28        -8.4477   -3.9687   60.2989 H       1  ZINC000011157684    0.1000
     29 H29        -9.0075   -1.6699   59.2562 H       1  ZINC000011157684    0.4200
     30 H30        -8.4968   -2.4880   62.5934 H       1  ZINC000011157684    0.1400
     31 H31        -8.9239   -1.0179   64.5210 H       1  ZINC000011157684    0.1400
     32 H32       -11.0217    1.7047   61.9897 H       1  ZINC000011157684    0.1500
     33 H33       -10.3279   -2.2672   58.1018 H       1  ZINC000011157684    0.4000
     34 H34       -11.6037   -3.9789   54.1157 H       1  ZINC000011157684    0.1400
     35 H35       -11.4882   -1.9523   52.5788 H       1  ZINC000011157684    0.1400
     36 H36       -11.0437    0.2410   53.7753 H       1  ZINC000011157684    0.1700
     37 H37       -12.8999   -5.6220   55.8582 H       1  ZINC000011157684    0.1200
     38 H38       -15.2319   -6.1027   56.4859 H       1  ZINC000011157684    0.1300
     39 H39       -16.3292   -4.7817   58.2507 H       1  ZINC000011157684    0.1300
     40 H40       -15.0940   -2.9807   59.3883 H       1  ZINC000011157684    0.1300
     41 H41       -12.7606   -2.5031   58.7638 H       1  ZINC000011157684    0.1300
@<TRIPOS>BOND
     1     1     2    2
     2     2     3    1
     3     2    13   am
     4     3     4    1
     5     3    27    1
     6     3    28    1
     7     4     5    1
     8     4    29    1
     9     5    11   ar
    10     5     6   ar
    11     6     7   ar
    12     6    30    1
    13     7     8   ar
    14     7    31    1
    15     8     9    1
    16     8    10   ar
    17    10    11   ar
    18    10    32    1
    19    11    12    1
    20    13    14    1
    21    13    33    1
    22    14    15    1
    23    14    16    1
    24    14    21    1
    25    16    20    1
    26    16    17    2
    27    17    18    1
    28    17    34    1
    29    18    19    2
    30    18    35    1
    31    19    20    1
    32    19    36    1
    33    21    26   ar
    34    21    22   ar
    35    22    23   ar
    36    22    37    1
    37    23    24   ar
    38    23    38    1
    39    24    25   ar
    40    24    39    1
    41    25    26   ar
    42    25    40    1
    43    26    41    1
@<TRIPOS>SUBSTRUCTURE
     1 ZINC000011157684        1 TEMP              0 ****  ****    0 ROOT


##########                                Name:    ZINC000807524472
##########                DOCK_Rotatable_Bonds:                   9
##########                         Heavy_Atoms:                  28
##########                    Molecular_Weight:             410.534
##########                DOCK_Rotatable_Bonds:                   9
##########                       Formal_Charge:           0.0200006
##########                     HBond_Acceptors:                   8
##########                        HBond_Donors:                   0
##########                         Heavy_Atoms:                  28
##########                          Grid_Score:          -34.737160
##########                     Grid_vdw_energy:          -33.646248
##########                      Grid_es_energy:           -1.090913
##########           Internal_energy_repulsive:           14.164658

@<TRIPOS>MOLECULE
ZINC000807524472
 58 60 1 0 0
SMALL
USER_CHARGES


@<TRIPOS>ATOM
      1 C1        -15.6742   -3.9523   59.4226 C.3     1  ZINC000807524472   -0.1500
      2 C2        -15.4009   -4.1567   57.9310 C.3     1  ZINC000807524472    0.0600
      3 O3        -14.5684   -5.3042   57.7522 O.3     1  ZINC000807524472   -0.3800
      4 C4        -14.1895   -5.5416   56.3949 C.3     1  ZINC000807524472    0.0600
      5 C5        -13.2354   -4.4391   55.9314 C.3     1  ZINC000807524472    0.0700
      6 O6        -12.7934   -4.7194   54.5770 O.3     1  ZINC000807524472   -0.3500
      7 C7        -11.8984   -3.8687   54.0370 C.2     1  ZINC000807524472    0.5000
      8 O8        -11.0596   -4.2817   53.2607 O.2     1  ZINC000807524472   -0.4600
      9 C9        -11.9369   -2.4387   54.3876 C.ar    1  ZINC000807524472   -0.1200
     10 C10       -11.2502   -1.9714   55.5115 C.ar    1  ZINC000807524472    0.0400
     11 C11       -11.2899   -0.6325   55.8335 C.ar    1  ZINC000807524472   -0.7000
     12 S12       -10.4226   -0.0462   57.2508 S.o2    1  ZINC000807524472    2.6900
     13 O13        -9.0897   -0.5244   57.1319 O.2     1  ZINC000807524472   -0.9500
     14 O14       -10.7454    1.3318   57.3772 O.2     1  ZINC000807524472   -0.9500
     15 N15       -11.0745   -0.8023   58.5720 N.am    1  ZINC000807524472   -0.9900
     16 C16       -10.2398   -1.6425   59.4414 C.3     1  ZINC000807524472    0.1200
     17 C17       -10.3902   -1.1586   60.8871 C.3     1  ZINC000807524472   -0.1400
     18 C18       -11.8734   -1.1431   61.2639 C.3     1  ZINC000807524472   -0.1200
     19 C19       -12.6238   -0.1726   60.3491 C.3     1  ZINC000807524472   -0.1400
     20 C20       -12.4975   -0.6405   58.9007 C.3     1  ZINC000807524472    0.1200
     21 C21       -12.0079    0.2557   55.0487 C.ar    1  ZINC000807524472    0.0200
     22 C22       -12.6917   -0.1896   53.9360 C.ar    1  ZINC000807524472   -0.1800
     23 C23       -12.6593   -1.5350   53.5913 C.ar    1  ZINC000807524472    0.2000
     24 N24       -13.3460   -1.9856   52.4720 N.3     1  ZINC000807524472   -0.4800
     25 C25       -14.7971   -1.6885   52.5826 C.3     1  ZINC000807524472    0.0400
     26 C26       -15.2859   -1.7563   51.1139 C.3     1  ZINC000807524472   -0.1200
     27 C27       -14.1073   -1.1366   50.3284 C.3     1  ZINC000807524472   -0.1300
     28 C28       -12.8840   -1.2902   51.2511 C.3     1  ZINC000807524472    0.0400
     29 H29       -14.7308   -3.8022   59.9476 H       1  ZINC000807524472    0.0600
     30 H30       -16.3092   -3.0770   59.5589 H       1  ZINC000807524472    0.0700
     31 H31       -16.1772   -4.8322   59.8236 H       1  ZINC000807524472    0.0700
     32 H32       -16.3442   -4.3068   57.4060 H       1  ZINC000807524472    0.0500
     33 H33       -14.8978   -3.2768   57.5299 H       1  ZINC000807524472    0.0500
     34 H34       -13.6912   -6.5083   56.3206 H       1  ZINC000807524472    0.0600
     35 H35       -15.0785   -5.5417   55.7642 H       1  ZINC000807524472    0.0700
     36 H36       -13.7512   -3.4791   55.9539 H       1  ZINC000807524472    0.0900
     37 H37       -12.3717   -4.4032   56.5953 H       1  ZINC000807524472    0.0800
     38 H38       -10.6893   -2.6591   56.1270 H       1  ZINC000807524472    0.1600
     39 H39       -10.5648   -2.6804   59.3677 H       1  ZINC000807524472    0.0800
     40 H40        -9.1967   -1.5616   59.1355 H       1  ZINC000807524472    0.0900
     41 H41        -9.8524   -1.8323   61.5540 H       1  ZINC000807524472    0.0800
     42 H42        -9.9812   -0.1523   60.9782 H       1  ZINC000807524472    0.0700
     43 H43       -12.2878   -2.1447   61.1486 H       1  ZINC000807524472    0.0700
     44 H44       -11.9815   -0.8226   62.3001 H       1  ZINC000807524472    0.0700
     45 H45       -13.6758   -0.1445   60.6331 H       1  ZINC000807524472    0.0800
     46 H46       -12.1938    0.8244   60.4453 H       1  ZINC000807524472    0.0700
     47 H47       -12.9453    0.0993   58.2373 H       1  ZINC000807524472    0.0900
     48 H48       -13.0053   -1.5973   58.7802 H       1  ZINC000807524472    0.0800
     49 H49       -12.0327    1.3034   55.3099 H       1  ZINC000807524472    0.1500
     50 H50       -13.2492    0.5092   53.3299 H       1  ZINC000807524472    0.1400
     51 H51       -15.2989   -2.4417   53.1902 H       1  ZINC000807524472    0.0900
     52 H52       -14.9554   -0.6920   52.9951 H       1  ZINC000807524472    0.0500
     53 H53       -15.4511   -2.7899   50.8097 H       1  ZINC000807524472    0.0800
     54 H54       -16.1916   -1.1645   50.9810 H       1  ZINC000807524472    0.0800
     55 H55       -13.9480   -1.6779   49.3958 H       1  ZINC000807524472    0.0800
     56 H56       -14.2994   -0.0828   50.1270 H       1  ZINC000807524472    0.0700
     57 H57       -12.4888   -0.3079   51.5103 H       1  ZINC000807524472    0.0500
     58 H58       -12.1162   -1.8831   50.7541 H       1  ZINC000807524472    0.0900
@<TRIPOS>BOND
     1     1     2    1
     2     1    29    1
     3     1    30    1
     4     1    31    1
     5     2     3    1
     6     2    32    1
     7     2    33    1
     8     3     4    1
     9     4     5    1
    10     4    34    1
    11     4    35    1
    12     5     6    1
    13     5    36    1
    14     5    37    1
    15     6     7    1
    16     7     8    2
    17     7     9    1
    18     9    23   ar
    19     9    10   ar
    20    10    11   ar
    21    10    38    1
    22    11    12    1
    23    11    21   ar
    24    12    13    2
    25    12    14    2
    26    12    15   am
    27    15    20    1
    28    15    16    1
    29    16    17    1
    30    16    39    1
    31    16    40    1
    32    17    18    1
    33    17    41    1
    34    17    42    1
    35    18    19    1
    36    18    43    1
    37    18    44    1
    38    19    20    1
    39    19    45    1
    40    19    46    1
    41    20    47    1
    42    20    48    1
    43    21    22   ar
    44    21    49    1
    45    22    23   ar
    46    22    50    1
    47    23    24    1
    48    24    28    1
    49    24    25    1
    50    25    26    1
    51    25    51    1
    52    25    52    1
    53    26    27    1
    54    26    53    1
    55    26    54    1
    56    27    28    1
    57    27    55    1
    58    27    56    1
    59    28    57    1
    60    28    58    1
@<TRIPOS>SUBSTRUCTURE
     1 ZINC000807524472        1 TEMP              0 ****  ****    0 ROOT


##########                                Name:    ZINC000006915700
##########                DOCK_Rotatable_Bonds:                   5
##########                         Heavy_Atoms:                  26
##########                    Molecular_Weight:             369.447
##########                DOCK_Rotatable_Bonds:                   5
##########                       Formal_Charge:        -1.04308e-07
##########                     HBond_Acceptors:                   8
##########                        HBond_Donors:                   1
##########                         Heavy_Atoms:                  26
##########                          Grid_Score:          -34.710411
##########                     Grid_vdw_energy:          -34.610058
##########                      Grid_es_energy:           -0.100355
##########           Internal_energy_repulsive:            5.368129

@<TRIPOS>MOLECULE
ZINC000006915700
 45 48 1 0 0
SMALL
USER_CHARGES


@<TRIPOS>ATOM
      1 C1        -10.1456   -0.5045   52.7780 C.3     1  <0>        -0.1200
      2 C2         -8.8434    0.0166   52.2265 C.ar    1  <0>        -0.0500
      3 C3         -8.4843    1.3357   52.4387 C.ar    1  <0>        -0.1300
      4 C4         -7.2932    1.8187   51.9367 C.ar    1  <0>        -0.0600
      5 C5         -6.4507    0.9739   51.2139 C.ar    1  <0>        -0.0700
      6 C6         -5.1707    1.4858   50.6728 C.2     1  <0>         0.4400
      7 N7         -4.2786    2.0148   51.4999 N.2     1  <0>        -0.5200
      8 C8         -3.1189    2.4805   51.0262 C.2     1  <0>         0.3600
      9 C9         -2.0164    3.0732   51.6281 C.2     1  <0>        -0.3200
     10 C10        -1.0865    3.3569   50.6266 C.2     1  <0>         0.5500
     11 O11         0.0031    3.8806   50.7925 O.2     1  <0>        -0.5200
     12 N12        -1.5951    2.9541   49.4458 N.am    1  <0>        -0.5000
     13 N13        -2.8610    2.4051   49.6729 N.pl3   1  <0>        -0.3300
     14 C14        -3.7993    1.8549   48.8482 C.2     1  <0>         0.3900
     15 S15        -3.5024    1.7429   47.1149 S.3     1  <0>         0.1200
     16 C16        -2.0820    0.6210   47.1114 C.3     1  <0>        -0.1500
     17 C17        -1.8235    0.1424   45.7059 C.2     1  <0>         0.5500
     18 O18        -2.4731   -0.7737   45.2481 O.2     1  <0>        -0.5200
     19 N19        -0.8703    0.7325   44.9579 N.am    1  <0>        -0.6100
     20 C20        -0.5184    0.3707   43.5770 C.3     1  <0>         0.0900
     21 C21         0.6385    1.2946   43.1419 C.3     1  <0>        -0.1300
     22 C22         1.2524    1.7433   44.4943 C.3     1  <0>        -0.1400
     23 C23        -0.0119    1.8518   45.3866 C.3     1  <0>         0.1000
     24 N24        -4.9322    1.4017   49.3618 N.2     1  <0>        -0.5600
     25 C25        -6.8185   -0.3552   51.0035 C.ar    1  <0>        -0.0500
     26 C26        -8.0097   -0.8276   51.5150 C.ar    1  <0>        -0.1300
     27 H27        -9.9842   -0.8954   53.7826 H       1  <0>         0.0800
     28 H28       -10.8742    0.3053   52.8159 H       1  <0>         0.0700
     29 H29       -10.5201   -1.3005   52.1343 H       1  <0>         0.0700
     30 H30        -9.1376    1.9889   52.9981 H       1  <0>         0.1300
     31 H31        -7.0141    2.8487   52.1026 H       1  <0>         0.1300
     32 H32        -1.8997    3.2782   52.6821 H       1  <0>         0.1800
     33 H33        -1.1571    3.0315   48.5838 H       1  <0>         0.4400
     34 H34        -1.2028    1.1468   47.4836 H       1  <0>         0.1400
     35 H35        -2.2929   -0.2342   47.7534 H       1  <0>         0.1400
     36 H36        -0.1969   -0.6700   43.5368 H       1  <0>         0.0800
     37 H37        -1.3782    0.5207   42.9239 H       1  <0>         0.0800
     38 H38         1.3699    0.7441   42.5501 H       1  <0>         0.0900
     39 H39         0.2591    2.1527   42.5871 H       1  <0>         0.0800
     40 H40         1.9425    0.9920   44.8785 H       1  <0>         0.0800
     41 H41         1.7449    2.7109   44.3982 H       1  <0>         0.0900
     42 H42        -0.5125    2.8057   45.2207 H       1  <0>         0.0800
     43 H43         0.2547    1.7400   46.4375 H       1  <0>         0.0800
     44 H44        -6.1704   -1.0140   50.4446 H       1  <0>         0.1400
     45 H45        -8.2954   -1.8564   51.3530 H       1  <0>         0.1300
@<TRIPOS>BOND
     1     1     2    1
     2     1    27    1
     3     1    28    1
     4     1    29    1
     5     2    26   ar
     6     2     3   ar
     7     3     4   ar
     8     3    30    1
     9     4     5   ar
    10     4    31    1
    11     5     6    1
    12     5    25   ar
    13     6    24    1
    14     6     7    2
    15     7     8    1
    16     8    13    1
    17     8     9    2
    18     9    10    1
    19     9    32    1
    20    10    11    2
    21    10    12   am
    22    12    13    1
    23    12    33    1
    24    13    14    1
    25    14    15    1
    26    14    24    2
    27    15    16    1
    28    16    17    1
    29    16    34    1
    30    16    35    1
    31    17    18    2
    32    17    19   am
    33    19    23    1
    34    19    20    1
    35    20    21    1
    36    20    36    1
    37    20    37    1
    38    21    22    1
    39    21    38    1
    40    21    39    1
    41    22    23    1
    42    22    40    1
    43    22    41    1
    44    23    42    1
    45    23    43    1
    46    25    26   ar
    47    25    44    1
    48    26    45    1
@<TRIPOS>SUBSTRUCTURE
     1 <0>         1 TEMP              0 ****  ****    0 ROOT


##########                                Name:    ZINC000880838037
##########                DOCK_Rotatable_Bonds:                   9
##########                         Heavy_Atoms:                  24
##########                    Molecular_Weight:             365.477
##########                DOCK_Rotatable_Bonds:                   9
##########                       Formal_Charge:           0.0200001
##########                     HBond_Acceptors:                   8
##########                        HBond_Donors:                   3
##########                         Heavy_Atoms:                  24
##########                          Grid_Score:          -34.697655
##########                     Grid_vdw_energy:          -33.062325
##########                      Grid_es_energy:           -1.635330
##########           Internal_energy_repulsive:           11.367768

@<TRIPOS>MOLECULE
ZINC000880838037
 43 44 1 0 0
SMALL
USER_CHARGES


@<TRIPOS>ATOM
      1 C1        -10.3997    0.2414   59.5213 C.3     1  ZINC000880838037    0.0300
      2 O2         -9.5972   -0.5289   58.6243 O.3     1  ZINC000880838037   -0.3100
      3 C3         -9.8890   -1.8517   58.5163 C.ar    1  ZINC000880838037    0.1400
      4 C4         -9.5045   -2.7316   59.5181 C.ar    1  ZINC000880838037   -0.2200
      5 C5         -9.8006   -4.0773   59.4097 C.ar    1  ZINC000880838037   -0.0700
      6 C6        -10.4794   -4.5508   58.3039 C.ar    1  ZINC000880838037   -0.1500
      7 C7        -10.8665   -3.6746   57.2976 C.ar    1  ZINC000880838037    0.1800
      8 N8        -11.5542   -4.1542   56.1774 N.am    1  ZINC000880838037   -0.6700
      9 C9        -12.8923   -4.3086   56.2233 C.2     1  ZINC000880838037    0.5200
     10 O10       -13.5003   -4.0318   57.2355 O.2     1  ZINC000880838037   -0.4900
     11 C11       -13.6329   -4.8252   55.0168 C.3     1  ZINC000880838037   -0.0600
     12 C12       -13.3855   -3.9098   53.8455 C.2     1  ZINC000880838037    0.1000
     13 C13       -12.2596   -3.9413   53.1318 C.2     1  ZINC000880838037   -0.2600
     14 S14       -12.3785   -2.7201   51.8677 S.3     1  ZINC000880838037    0.1300
     15 C15       -13.9356   -2.2828   52.4218 C.2     1  ZINC000880838037    0.0100
     16 S16       -14.9445   -1.0260   51.7094 S.3     1  ZINC000880838037    0.1000
     17 C17       -14.1232   -0.8338   50.1080 C.3     1  ZINC000880838037   -0.1500
     18 H18       -13.0428   -0.8724   50.2469 H       1  ZINC000880838037    0.1200
     19 C19       -14.5109    0.5130   49.4943 C.3     1  ZINC000880838037   -0.1500
     20 C20       -14.5512   -1.9473   49.1870 C.2     1  ZINC000880838037    0.5400
     21 N21       -14.3905   -1.8193   47.8550 N.am    1  ZINC000880838037   -0.8400
     22 O22       -15.0403   -2.9584   49.6445 O.2     1  ZINC000880838037   -0.5200
     23 N23       -14.2687   -3.0153   53.4397 N.2     1  ZINC000880838037   -0.4200
     24 C24       -10.5759   -2.3223   57.4080 C.ar    1  ZINC000880838037   -0.1500
     25 C25       -10.9942   -1.3689   56.3183 C.3     1  ZINC000880838037   -0.1000
     26 H26       -10.3070   -0.1622   60.5295 H       1  ZINC000880838037    0.0600
     27 H27       -10.0620    1.2778   59.5123 H       1  ZINC000880838037    0.1000
     28 H28       -11.4422    0.1963   59.2063 H       1  ZINC000880838037    0.0600
     29 H29        -8.9729   -2.3643   60.3836 H       1  ZINC000880838037    0.1300
     30 H30        -9.5001   -4.7599   60.1908 H       1  ZINC000880838037    0.1300
     31 H31       -10.7092   -5.6028   58.2214 H       1  ZINC000880838037    0.1400
     32 H32       -11.0678   -4.3756   55.3679 H       1  ZINC000880838037    0.4100
     33 H33       -13.2797   -5.8278   54.7754 H       1  ZINC000880838037    0.1200
     34 H34       -14.7008   -4.8585   55.2327 H       1  ZINC000880838037    0.1200
     35 H35       -11.4207   -4.6004   53.2997 H       1  ZINC000880838037    0.1800
     36 H36       -15.5913    0.5515   49.3554 H       1  ZINC000880838037    0.0900
     37 H37       -14.2012    1.3184   50.1604 H       1  ZINC000880838037    0.0800
     38 H38       -14.0162    0.6287   48.5300 H       1  ZINC000880838037    0.0800
     39 H39       -14.6671   -2.5355   47.2621 H       1  ZINC000880838037    0.4000
     40 H40       -13.9983   -1.0111   47.4893 H       1  ZINC000880838037    0.4100
     41 H41       -11.9915   -0.9855   56.5341 H       1  ZINC000880838037    0.0700
     42 H42       -10.2886   -0.5395   56.2706 H       1  ZINC000880838037    0.0700
     43 H43       -11.0051   -1.8921   55.3622 H       1  ZINC000880838037    0.0600
@<TRIPOS>BOND
     1     1     2    1
     2     1    26    1
     3     1    27    1
     4     1    28    1
     5     2     3    1
     6     3    24   ar
     7     3     4   ar
     8     4     5   ar
     9     4    29    1
    10     5     6   ar
    11     5    30    1
    12     6     7   ar
    13     6    31    1
    14     7     8    1
    15     7    24   ar
    16     8     9   am
    17     8    32    1
    18     9    10    2
    19     9    11    1
    20    11    12    1
    21    11    33    1
    22    11    34    1
    23    12    23    1
    24    12    13    2
    25    13    14    1
    26    13    35    1
    27    14    15    1
    28    15    16    1
    29    15    23    2
    30    16    17    1
    31    17    18    1
    32    17    19    1
    33    17    20    1
    34    19    36    1
    35    19    37    1
    36    19    38    1
    37    20    21   am
    38    20    22    2
    39    21    39    1
    40    21    40    1
    41    24    25    1
    42    25    41    1
    43    25    42    1
    44    25    43    1
@<TRIPOS>SUBSTRUCTURE
     1 ZINC000880838037        1 TEMP              0 ****  ****    0 ROOT


##########                                Name:    ZINC001120957943
##########                DOCK_Rotatable_Bonds:                   4
##########                         Heavy_Atoms:                  27
##########                    Molecular_Weight:             396.802
##########                DOCK_Rotatable_Bonds:                   4
##########                       Formal_Charge:          -0.0199996
##########                     HBond_Acceptors:                  10
##########                        HBond_Donors:                   0
##########                         Heavy_Atoms:                  27
##########                          Grid_Score:          -34.689541
##########                     Grid_vdw_energy:          -35.424255
##########                      Grid_es_energy:            0.734714
##########           Internal_energy_repulsive:            9.846927

@<TRIPOS>MOLECULE
ZINC001120957943
 43 46 1 0 0
SMALL
USER_CHARGES


@<TRIPOS>ATOM
      1 C1        -11.1857   -5.4007   57.4318 C.3     1  ZINC001120957943    0.0900
      2 N2        -11.7385   -4.1457   57.9471 N.pl3   1  ZINC001120957943   -0.6000
      3 C3        -12.9409   -3.5705   57.3390 C.3     1  ZINC001120957943    0.2200
      4 C4        -12.9324   -3.8406   55.8565 C.2     1  ZINC001120957943    0.1600
      5 N5        -13.4422   -4.8837   55.2532 N.2     1  ZINC001120957943   -0.2500
      6 N6        -13.2538   -4.7865   53.9817 N.2     1  ZINC001120957943   -0.2800
      7 C7        -12.6191   -3.6843   53.7210 C.2     1  ZINC001120957943    0.1700
      8 C8        -12.1783   -3.1484   52.3821 C.3     1  ZINC001120957943   -0.0300
      9 C9        -11.1389   -2.0464   52.6276 C.3     1  ZINC001120957943   -0.1300
     10 C10       -11.6715   -1.0744   53.6844 C.3     1  ZINC001120957943   -0.1500
     11 H11       -12.6771   -0.7554   53.4101 H       1  ZINC001120957943    0.1300
     12 C12       -10.7530    0.1466   53.7627 C.3     1  ZINC001120957943    0.4600
     13 F13       -10.7274    0.7913   52.5214 F       1  ZINC001120957943   -0.1700
     14 F14       -11.2325    1.0292   54.7368 F       1  ZINC001120957943   -0.1800
     15 F15        -9.4593   -0.2640   54.1017 F       1  ZINC001120957943   -0.1800
     16 C16       -11.7115   -1.7711   55.0496 C.3     1  ZINC001120957943    0.1100
     17 N17       -12.4036   -3.0511   54.9019 N.pl3   1  ZINC001120957943   -0.4700
     18 C18       -11.1233   -3.5019   59.0107 C.ar    1  ZINC001120957943    0.3700
     19 C19        -9.8068   -3.8437   59.3659 C.ar    1  ZINC001120957943    0.0500
     20 N20        -9.2090   -3.2456   60.3680 N.ar    1  ZINC001120957943   -0.3900
     21 C21        -9.8555   -2.3001   61.0616 C.ar    1  ZINC001120957943    0.0400
     22 C22        -9.2370   -1.6440   62.1392 C.ar    1  ZINC001120957943   -0.0600
     23 C23        -9.9179   -0.6856   62.8273 C.ar    1  ZINC001120957943   -0.0400
     24 Cl24       -9.1490    0.1219   64.1578 Cl      1  ZINC001120957943   -0.0600
     25 C25       -11.2239   -0.3437   62.4775 C.ar    1  ZINC001120957943   -0.0800
     26 C26       -11.8537   -0.9586   61.4396 C.ar    1  ZINC001120957943   -0.0800
     27 C27       -11.1825   -1.9526   60.7069 C.ar    1  ZINC001120957943    0.1400
     28 N28       -11.7765   -2.5695   59.6779 N.ar    1  ZINC001120957943   -0.4700
     29 H29       -10.4627   -5.1835   56.6454 H       1  ZINC001120957943    0.0700
     30 H30       -10.6919   -5.9394   58.2404 H       1  ZINC001120957943    0.0800
     31 H31       -11.9911   -6.0129   57.0260 H       1  ZINC001120957943    0.0700
     32 H32       -13.8260   -4.0232   57.7859 H       1  ZINC001120957943    0.1200
     33 H33       -12.9564   -2.4944   57.5122 H       1  ZINC001120957943    0.1000
     34 H34       -11.7324   -3.9502   51.7935 H       1  ZINC001120957943    0.1100
     35 H35       -13.0353   -2.7343   51.8513 H       1  ZINC001120957943    0.1000
     36 H36       -10.2099   -2.4943   52.9805 H       1  ZINC001120957943    0.0900
     37 H37       -10.9535   -1.5076   51.6984 H       1  ZINC001120957943    0.1000
     38 H38       -10.6946   -1.9399   55.4038 H       1  ZINC001120957943    0.1000
     39 H39       -12.2505   -1.1473   55.7627 H       1  ZINC001120957943    0.1100
     40 H40        -9.2830   -4.6061   58.8085 H       1  ZINC001120957943    0.1700
     41 H41        -8.2261   -1.8987   62.4209 H       1  ZINC001120957943    0.1500
     42 H42       -11.7430    0.4195   63.0385 H       1  ZINC001120957943    0.1400
     43 H43       -12.8655   -0.6840   61.1800 H       1  ZINC001120957943    0.1500
@<TRIPOS>BOND
     1     1     2    1
     2     1    29    1
     3     1    30    1
     4     1    31    1
     5     2     3    1
     6     2    18    1
     7     3     4    1
     8     3    32    1
     9     3    33    1
    10     4    17    1
    11     4     5    2
    12     5     6    1
    13     6     7    2
    14     7    17    1
    15     7     8    1
    16     8     9    1
    17     8    34    1
    18     8    35    1
    19     9    10    1
    20     9    36    1
    21     9    37    1
    22    10    11    1
    23    10    12    1
    24    10    16    1
    25    12    13    1
    26    12    14    1
    27    12    15    1
    28    16    17    1
    29    16    38    1
    30    16    39    1
    31    18    28   ar
    32    18    19   ar
    33    19    20   ar
    34    19    40    1
    35    20    21   ar
    36    21    27   ar
    37    21    22   ar
    38    22    23   ar
    39    22    41    1
    40    23    24    1
    41    23    25   ar
    42    25    26   ar
    43    25    42    1
    44    26    27   ar
    45    26    43    1
    46    27    28   ar
@<TRIPOS>SUBSTRUCTURE
     1 ZINC001120957943        1 TEMP              0 ****  ****    0 ROOT


##########                                Name:    ZINC000981048968
##########                DOCK_Rotatable_Bonds:                   7
##########                         Heavy_Atoms:                  25
##########                    Molecular_Weight:             344.414
##########                DOCK_Rotatable_Bonds:                   7
##########                       Formal_Charge:                0.02
##########                     HBond_Acceptors:                   7
##########                        HBond_Donors:                   2
##########                         Heavy_Atoms:                  25
##########                          Grid_Score:          -34.683826
##########                     Grid_vdw_energy:          -33.765812
##########                      Grid_es_energy:           -0.918013
##########           Internal_energy_repulsive:            5.158212

@<TRIPOS>MOLECULE
ZINC000981048968
 49 52 1 0 0
SMALL
USER_CHARGES


@<TRIPOS>ATOM
      1 C1         -6.0653    1.1099   51.0529 C.3     1  ZINC000981048968   -0.0800
      2 C2         -7.4870    0.7889   51.4361 C.2     1  ZINC000981048968   -0.0100
      3 C3         -7.9609   -0.4360   51.7108 C.2     1  ZINC000981048968   -0.1600
      4 C4         -9.3848   -0.2562   52.0296 C.2     1  ZINC000981048968   -0.2300
      5 C5        -10.3537   -1.3028   52.4008 C.2     1  ZINC000981048968    0.5900
      6 O6        -10.0043   -2.4668   52.4452 O.2     1  ZINC000981048968   -0.5300
      7 N7        -11.6272   -0.9699   52.6909 N.am    1  ZINC000981048968   -0.7300
      8 C8        -12.5908   -2.0105   53.0582 C.3     1  ZINC000981048968    0.1500
      9 H9        -12.1595   -2.9917   52.8593 H       1  ZINC000981048968    0.0900
     10 C10       -13.8673   -1.8377   52.2325 C.3     1  ZINC000981048968   -0.1300
     11 C11       -14.8737   -2.9244   52.6161 C.3     1  ZINC000981048968   -0.1200
     12 C12       -15.2090   -2.8068   54.1043 C.3     1  ZINC000981048968   -0.1100
     13 C13       -13.9325   -2.9796   54.9298 C.3     1  ZINC000981048968    0.1000
     14 H14       -13.5012   -3.9607   54.7310 H       1  ZINC000981048968    0.0500
     15 N15       -14.2544   -2.8666   56.3586 N.3     1  ZINC000981048968   -0.6800
     16 C16       -14.0730   -4.1540   57.0426 C.3     1  ZINC000981048968    0.1500
     17 C17       -12.6314   -4.3053   57.4546 C.2     1  ZINC000981048968    0.1800
     18 N18       -11.7751   -5.1493   56.9617 N.2     1  ZINC000981048968   -0.3800
     19 O19       -10.6983   -5.0204   57.5050 O.3     1  ZINC000981048968    0.0800
     20 C20       -10.7674   -4.0526   58.4239 C.2     1  ZINC000981048968    0.2100
     21 C21        -9.6489   -3.5818   59.3175 C.3     1  ZINC000981048968   -0.0800
     22 C22        -9.5258   -2.0764   59.5616 C.3     1  ZINC000981048968   -0.1600
     23 C23       -10.0310   -2.9936   60.6772 C.3     1  ZINC000981048968   -0.1500
     24 N24       -11.9931   -3.5874   58.3961 N.2     1  ZINC000981048968   -0.4600
     25 C25       -12.9261   -1.8929   54.5463 C.3     1  ZINC000981048968   -0.1300
     26 C26        -9.6215    1.0821   51.9109 C.2     1  ZINC000981048968    0.0200
     27 O27        -8.4797    1.6831   51.5627 O.3     1  ZINC000981048968   -0.1700
     28 H28        -5.9657    2.1835   50.8930 H       1  ZINC000981048968    0.0800
     29 H29        -5.3940    0.7980   51.8530 H       1  ZINC000981048968    0.0900
     30 H30        -5.8079    0.5806   50.1354 H       1  ZINC000981048968    0.0900
     31 H31        -7.4092   -1.3644   51.6997 H       1  ZINC000981048968    0.1600
     32 H32       -11.9056   -0.0414   52.6567 H       1  ZINC000981048968    0.4000
     33 H33       -14.2986   -0.8566   52.4314 H       1  ZINC000981048968    0.0700
     34 H34       -13.6284   -1.9216   51.1724 H       1  ZINC000981048968    0.0700
     35 H35       -15.7831   -2.8014   52.0279 H       1  ZINC000981048968    0.0700
     36 H36       -14.4424   -3.9056   52.4173 H       1  ZINC000981048968    0.0600
     37 H37       -15.6402   -1.8257   54.3031 H       1  ZINC000981048968    0.0700
     38 H38       -15.9259   -3.5810   54.3775 H       1  ZINC000981048968    0.0700
     39 H39       -13.7040   -2.1435   56.7972 H       1  ZINC000981048968    0.3500
     40 H40       -14.7093   -4.1882   57.9269 H       1  ZINC000981048968    0.1100
     41 H41       -14.3450   -4.9655   56.3676 H       1  ZINC000981048968    0.0600
     42 H42        -8.7265   -4.1598   59.2603 H       1  ZINC000981048968    0.1500
     43 H43        -8.5223   -1.6638   59.6650 H       1  ZINC000981048968    0.1200
     44 H44       -10.2537   -1.4266   59.0759 H       1  ZINC000981048968    0.1100
     45 H45       -11.0913   -2.9472   60.9254 H       1  ZINC000981048968    0.1000
     46 H46        -9.3597   -3.1843   61.5146 H       1  ZINC000981048968    0.1200
     47 H47       -12.0167   -2.0159   55.1345 H       1  ZINC000981048968    0.0700
     48 H48       -13.3573   -0.9118   54.7451 H       1  ZINC000981048968    0.0800
     49 H49       -10.5697    1.5729   52.0742 H       1  ZINC000981048968    0.2100
@<TRIPOS>BOND
     1     1     2    1
     2     1    28    1
     3     1    29    1
     4     1    30    1
     5     2    27    1
     6     2     3    2
     7     3     4    1
     8     3    31    1
     9     4     5    1
    10     4    26    2
    11     5     6    2
    12     5     7   am
    13     7     8    1
    14     7    32    1
    15     8     9    1
    16     8    25    1
    17     8    10    1
    18    10    11    1
    19    10    33    1
    20    10    34    1
    21    11    12    1
    22    11    35    1
    23    11    36    1
    24    12    13    1
    25    12    37    1
    26    12    38    1
    27    13    14    1
    28    13    15    1
    29    13    25    1
    30    15    16    1
    31    15    39    1
    32    16    17    1
    33    16    40    1
    34    16    41    1
    35    17    24    1
    36    17    18    2
    37    18    19    1
    38    19    20    1
    39    20    21    1
    40    20    24    2
    41    21    23    1
    42    21    22    1
    43    21    42    1
    44    22    23    1
    45    22    43    1
    46    22    44    1
    47    23    45    1
    48    23    46    1
    49    25    47    1
    50    25    48    1
    51    26    27    1
    52    26    49    1
@<TRIPOS>SUBSTRUCTURE
     1 ZINC000981048968        1 TEMP              0 ****  ****    0 ROOT


##########                                Name:    ZINC000074782190
##########                DOCK_Rotatable_Bonds:                   9
##########                         Heavy_Atoms:                  25
##########                    Molecular_Weight:             341.453
##########                DOCK_Rotatable_Bonds:                   9
##########                       Formal_Charge:          -0.0200006
##########                     HBond_Acceptors:                   5
##########                        HBond_Donors:                   1
##########                         Heavy_Atoms:                  25
##########                          Grid_Score:          -34.673836
##########                     Grid_vdw_energy:          -33.566948
##########                      Grid_es_energy:           -1.106888
##########           Internal_energy_repulsive:           26.662052

@<TRIPOS>MOLECULE
ZINC000074782190
 52 53 1 0 0
SMALL
USER_CHARGES


@<TRIPOS>ATOM
      1 C1        -12.6999   -0.6718   61.3001 C.3     1  ZINC000074782190   -0.1100
      2 C2        -11.4857   -0.4523   62.1654 C.ar    1  ZINC000074782190   -0.1200
      3 C3        -11.4108    0.6589   62.9824 C.ar    1  ZINC000074782190   -0.0800
      4 C4        -10.2967    0.8611   63.7762 C.ar    1  ZINC000074782190   -0.1500
      5 C5         -9.2556   -0.0481   63.7546 C.ar    1  ZINC000074782190   -0.0900
      6 C6         -9.3258   -1.1614   62.9396 C.ar    1  ZINC000074782190   -0.2100
      7 C7        -10.4445   -1.3693   62.1463 C.ar    1  ZINC000074782190    0.1300
      8 O8        -10.5160   -2.4636   61.3435 O.3     1  ZINC000074782190   -0.3000
      9 C9         -9.5000   -2.6060   60.3489 C.3     1  ZINC000074782190    0.0700
     10 H10        -8.5361   -2.7612   60.8337 H       1  ZINC000074782190    0.0800
     11 C11        -9.4424   -1.3388   59.4935 C.3     1  ZINC000074782190   -0.1800
     12 C12        -9.8225   -3.8079   59.4588 C.3     1  ZINC000074782190    0.1400
     13 N13       -11.1814   -3.6724   58.9287 N.am    1  ZINC000074782190   -0.7500
     14 C14       -11.6001   -4.4788   57.9332 C.2     1  ZINC000074782190    0.7100
     15 O15       -10.8498   -5.3187   57.4751 O.2     1  ZINC000074782190   -0.5900
     16 N16       -12.8502   -4.3541   57.4455 N.am    1  ZINC000074782190   -0.6200
     17 C17       -13.3053   -5.2306   56.3634 C.3     1  ZINC000074782190    0.1800
     18 C18       -13.2284   -4.4916   55.0523 C.ar    1  ZINC000074782190   -0.1600
     19 C19       -14.3033   -4.5012   54.1770 C.ar    1  ZINC000074782190   -0.0500
     20 C20       -14.1878   -3.8069   52.9822 C.ar    1  ZINC000074782190   -0.1800
     21 C21       -13.0134   -3.1331   52.7058 C.ar    1  ZINC000074782190    0.1000
     22 N22       -12.0108   -3.1457   53.5625 N.ar    1  ZINC000074782190   -0.4900
     23 C23       -12.0872   -3.7907   54.7099 C.ar    1  ZINC000074782190    0.1100
     24 C24       -13.7543   -3.3419   57.9975 C.3     1  ZINC000074782190    0.1300
     25 C25       -13.6229   -2.0474   57.1925 C.3     1  ZINC000074782190   -0.1800
     26 C26       -15.1959   -3.8479   57.9179 C.3     1  ZINC000074782190   -0.1800
     27 H27       -13.4406   -1.2493   61.8532 H       1  ZINC000074782190    0.0700
     28 H28       -13.1256    0.2919   61.0202 H       1  ZINC000074782190    0.0600
     29 H29       -12.4118   -1.2166   60.4011 H       1  ZINC000074782190    0.0700
     30 H30       -12.2230    1.3705   63.0010 H       1  ZINC000074782190    0.1300
     31 H31       -10.2398    1.7309   64.4138 H       1  ZINC000074782190    0.1200
     32 H32        -8.3863    0.1122   64.3753 H       1  ZINC000074782190    0.1200
     33 H33        -8.5120   -1.8712   62.9228 H       1  ZINC000074782190    0.1300
     34 H34       -10.4062   -1.1835   59.0088 H       1  ZINC000074782190    0.0700
     35 H35        -9.2125   -0.4825   60.1277 H       1  ZINC000074782190    0.0700
     36 H36        -8.6674   -1.4474   58.7348 H       1  ZINC000074782190    0.0800
     37 H37        -9.1127   -3.8490   58.6326 H       1  ZINC000074782190    0.0800
     38 H38        -9.7509   -4.7240   60.0452 H       1  ZINC000074782190    0.0900
     39 H39       -11.7800   -3.0023   59.2942 H       1  ZINC000074782190    0.4100
     40 H40       -12.6692   -6.1146   56.3201 H       1  ZINC000074782190    0.0900
     41 H41       -14.3357   -5.5332   56.5499 H       1  ZINC000074782190    0.1000
     42 H42       -15.2090   -5.0371   54.4197 H       1  ZINC000074782190    0.1400
     43 H43       -15.0052   -3.7933   52.2765 H       1  ZINC000074782190    0.1300
     44 H44       -12.9154   -2.5903   51.7773 H       1  ZINC000074782190    0.1600
     45 H45       -11.2453   -3.7783   55.3863 H       1  ZINC000074782190    0.1500
     46 H46       -13.4933   -3.1506   59.0383 H       1  ZINC000074782190    0.1000
     47 H47       -13.9698   -2.2167   56.1732 H       1  ZINC000074782190    0.0600
     48 H48       -14.2267   -1.2678   57.6570 H       1  ZINC000074782190    0.0700
     49 H49       -12.5786   -1.7356   57.1740 H       1  ZINC000074782190    0.0600
     50 H50       -15.3180   -4.7034   58.5823 H       1  ZINC000074782190    0.0700
     51 H51       -15.8773   -3.0527   58.2203 H       1  ZINC000074782190    0.0700
     52 H52       -15.4196   -4.1482   56.8941 H       1  ZINC000074782190    0.0700
@<TRIPOS>BOND
     1     1     2    1
     2     1    27    1
     3     1    28    1
     4     1    29    1
     5     2     7   ar
     6     2     3   ar
     7     3     4   ar
     8     3    30    1
     9     4     5   ar
    10     4    31    1
    11     5     6   ar
    12     5    32    1
    13     6     7   ar
    14     6    33    1
    15     7     8    1
    16     8     9    1
    17     9    10    1
    18     9    11    1
    19     9    12    1
    20    11    34    1
    21    11    35    1
    22    11    36    1
    23    12    13    1
    24    12    37    1
    25    12    38    1
    26    13    14   am
    27    13    39    1
    28    14    15    2
    29    14    16   am
    30    16    17    1
    31    16    24    1
    32    17    18    1
    33    17    40    1
    34    17    41    1
    35    18    23   ar
    36    18    19   ar
    37    19    20   ar
    38    19    42    1
    39    20    21   ar
    40    20    43    1
    41    21    22   ar
    42    21    44    1
    43    22    23   ar
    44    23    45    1
    45    24    25    1
    46    24    26    1
    47    24    46    1
    48    25    47    1
    49    25    48    1
    50    25    49    1
    51    26    50    1
    52    26    51    1
    53    26    52    1
@<TRIPOS>SUBSTRUCTURE
     1 ZINC000074782190        1 TEMP              0 ****  ****    0 ROOT


##########                                Name:    ZINC000004313955
##########                DOCK_Rotatable_Bonds:                   6
##########                         Heavy_Atoms:                  26
##########                    Molecular_Weight:             414.358
##########                DOCK_Rotatable_Bonds:                   6
##########                       Formal_Charge:           0.0299997
##########                     HBond_Acceptors:                   9
##########                        HBond_Donors:                   2
##########                         Heavy_Atoms:                  26
##########                          Grid_Score:          -34.655876
##########                     Grid_vdw_energy:          -33.291786
##########                      Grid_es_energy:           -1.364089
##########           Internal_energy_repulsive:           12.810143

@<TRIPOS>MOLECULE
ZINC000004313955
 47 49 1 0 0
SMALL
USER_CHARGES


@<TRIPOS>ATOM
      1 C1        -15.1653   -1.7358   48.8214 C.3     1  ZINC000004313955   -0.1500
      2 C2        -14.8468   -2.0409   50.2866 C.3     1  ZINC000004313955   -0.1100
      3 H3        -14.9332   -3.1132   50.4620 H       1  ZINC000004313955    0.0800
      4 C4        -15.8317   -1.2946   51.1894 C.3     1  ZINC000004313955   -0.1100
      5 C5        -15.5347   -1.6249   52.6539 C.3     1  ZINC000004313955   -0.1100
      6 H6        -16.2513   -1.1114   53.2952 H       1  ZINC000004313955    0.0900
      7 C7        -15.6472   -3.1355   52.8697 C.3     1  ZINC000004313955   -0.1500
      8 C8        -14.1159   -1.1624   53.0000 C.3     1  ZINC000004313955    0.1200
      9 N9        -13.1763   -1.7632   52.0434 N.am    1  ZINC000004313955   -0.6000
     10 C10       -12.1112   -2.4665   52.4764 C.2     1  ZINC000004313955    0.5400
     11 O11       -11.3437   -2.9587   51.6767 O.2     1  ZINC000004313955   -0.5300
     12 C12       -11.8741   -2.6412   53.9544 C.3     1  ZINC000004313955   -0.1400
     13 S13       -11.2471   -1.0932   54.6520 S.3     1  ZINC000004313955    0.0800
     14 C14       -11.3659   -1.4620   56.3708 C.2     1  ZINC000004313955    0.1100
     15 N15       -12.1559   -2.3548   56.9238 N.2     1  ZINC000004313955   -0.2800
     16 N16       -11.9874   -2.3646   58.1978 N.2     1  ZINC000004313955   -0.2400
     17 C17       -11.0795   -1.4790   58.5366 C.2     1  ZINC000004313955    0.2500
     18 C18       -10.6047   -1.1873   59.9058 C.ar    1  ZINC000004313955   -0.0100
     19 C19       -10.9662    0.0057   60.5333 C.ar    1  ZINC000004313955   -0.0700
     20 C20       -10.5200    0.2726   61.8111 C.ar    1  ZINC000004313955   -0.1100
     21 C21        -9.7147   -0.6398   62.4715 C.ar    1  ZINC000004313955   -0.0100
     22 Cl22       -9.1572   -0.2957   64.0792 Cl      1  ZINC000004313955   -0.0500
     23 C23        -9.3524   -1.8257   61.8553 C.ar    1  ZINC000004313955   -0.1100
     24 C24        -9.7971   -2.1071   60.5791 C.ar    1  ZINC000004313955    0.0100
     25 Cl25       -9.3423   -3.5941   59.8073 Cl      1  ZINC000004313955   -0.0100
     26 N26       -10.6496   -0.8774   57.3764 N.pl3   1  ZINC000004313955   -0.3000
     27 N27        -9.7084    0.1052   57.2559 N.3     1  ZINC000004313955   -0.5800
     28 C28       -13.4199   -1.5839   50.6055 C.3     1  ZINC000004313955    0.1100
     29 H29       -14.4628   -2.2666   48.1788 H       1  ZINC000004313955    0.0600
     30 H30       -16.1810   -2.0600   48.5953 H       1  ZINC000004313955    0.0600
     31 H31       -15.0788   -0.6634   48.6465 H       1  ZINC000004313955    0.0600
     32 H32       -15.7279   -0.2211   51.0310 H       1  ZINC000004313955    0.0700
     33 H33       -16.8496   -1.6003   50.9473 H       1  ZINC000004313955    0.0700
     34 H34       -14.9298   -3.6483   52.2291 H       1  ZINC000004313955    0.0600
     35 H35       -15.4356   -3.3702   53.9128 H       1  ZINC000004313955    0.0600
     36 H36       -16.6563   -3.4639   52.6207 H       1  ZINC000004313955    0.0600
     37 H37       -14.0595   -0.0759   52.9343 H       1  ZINC000004313955    0.0700
     38 H38       -13.8633   -1.4832   54.0106 H       1  ZINC000004313955    0.1000
     39 H39       -12.8112   -2.9070   54.4436 H       1  ZINC000004313955    0.1300
     40 H40       -11.1433   -3.4340   54.1138 H       1  ZINC000004313955    0.1300
     41 H41       -11.5937    0.7188   60.0193 H       1  ZINC000004313955    0.1600
     42 H42       -10.7993    1.1957   62.2974 H       1  ZINC000004313955    0.1500
     43 H43        -8.7241   -2.5335   62.3754 H       1  ZINC000004313955    0.1500
     44 H44        -9.2878    0.0926   56.3388 H       1  ZINC000004313955    0.3700
     45 H45       -10.1032    1.0111   57.4602 H       1  ZINC000004313955    0.3800
     46 H46       -12.7080   -2.1823   50.0370 H       1  ZINC000004313955    0.0900
     47 H47       -13.3069   -0.5318   50.3441 H       1  ZINC000004313955    0.0800
@<TRIPOS>BOND
     1     1     2    1
     2     1    29    1
     3     1    30    1
     4     1    31    1
     5     2     3    1
     6     2    28    1
     7     2     4    1
     8     4     5    1
     9     4    32    1
    10     4    33    1
    11     5     6    1
    12     5     7    1
    13     5     8    1
    14     7    34    1
    15     7    35    1
    16     7    36    1
    17     8     9    1
    18     8    37    1
    19     8    38    1
    20     9    10   am
    21     9    28    1
    22    10    11    2
    23    10    12    1
    24    12    13    1
    25    12    39    1
    26    12    40    1
    27    13    14    1
    28    14    26    1
    29    14    15    2
    30    15    16    1
    31    16    17    2
    32    17    18    1
    33    17    26    1
    34    18    24   ar
    35    18    19   ar
    36    19    20   ar
    37    19    41    1
    38    20    21   ar
    39    20    42    1
    40    21    22    1
    41    21    23   ar
    42    23    24   ar
    43    23    43    1
    44    24    25    1
    45    26    27    1
    46    27    44    1
    47    27    45    1
    48    28    46    1
    49    28    47    1
@<TRIPOS>SUBSTRUCTURE
     1 ZINC000004313955        1 TEMP              0 ****  ****    0 ROOT


##########                                Name:    ZINC000174621331
##########                DOCK_Rotatable_Bonds:                   8
##########                         Heavy_Atoms:                  25
##########                    Molecular_Weight:             366.438
##########                DOCK_Rotatable_Bonds:                   8
##########                       Formal_Charge:        -5.96046e-08
##########                     HBond_Acceptors:                   8
##########                        HBond_Donors:                   3
##########                         Heavy_Atoms:                  25
##########                          Grid_Score:          -34.647400
##########                     Grid_vdw_energy:          -31.166824
##########                      Grid_es_energy:           -3.480574
##########           Internal_energy_repulsive:           15.040078

@<TRIPOS>MOLECULE
ZINC000174621331
 47 48 1 0 0
SMALL
USER_CHARGES


@<TRIPOS>ATOM
      1 C1        -10.2252    3.0206   66.2560 C.3     1  ZINC000174621331    0.0300
      2 O2         -9.9889    1.6317   66.4956 O.3     1  ZINC000174621331   -0.3800
      3 C3         -8.7174    1.3515   67.0845 C.3     1  ZINC000174621331    0.0500
      4 C4         -7.7847    0.7591   66.0262 C.3     1  ZINC000174621331    0.2400
      5 H5         -7.5533   -0.2745   66.2834 H       1  ZINC000174621331    0.1300
      6 N6         -8.4417    0.8013   64.7175 N.am    1  ZINC000174621331   -0.7200
      7 C7         -9.0257   -0.3071   64.2207 C.2     1  ZINC000174621331    0.5600
      8 O8         -9.0060   -1.3421   64.8578 O.2     1  ZINC000174621331   -0.5300
      9 C9         -9.6903   -0.2642   62.9007 C.ar    1  ZINC000174621331   -0.1600
     10 C10       -10.4216    0.8620   62.5206 C.ar    1  ZINC000174621331   -0.0200
     11 C11       -11.0391    0.8959   61.2871 C.ar    1  ZINC000174621331   -0.1100
     12 C12       -11.8291    2.1111   60.8749 C.3     1  ZINC000174621331   -0.1200
     13 C13       -10.9341   -0.1832   60.4278 C.ar    1  ZINC000174621331    0.0400
     14 C14       -11.6107   -0.1390   59.0820 C.3     1  ZINC000174621331   -0.1600
     15 C15       -10.2102   -1.3028   60.7985 C.ar    1  ZINC000174621331   -0.6800
     16 S16       -10.0823   -2.6715   59.6962 S.o2    1  ZINC000174621331    2.7000
     17 N17        -8.9021   -3.6702   60.2896 N.am    1  ZINC000174621331   -1.2500
     18 O18       -11.3049   -3.3877   59.8023 O.2     1  ZINC000174621331   -0.9500
     19 O19        -9.5894   -2.1531   58.4684 O.2     1  ZINC000174621331   -0.9600
     20 C20        -9.5844   -1.3476   62.0269 C.ar    1  ZINC000174621331    0.0400
     21 C21        -6.5100    1.5614   65.9744 C.2     1  ZINC000174621331   -0.0200
     22 C22        -6.4252    2.9039   65.9688 C.2     1  ZINC000174621331   -0.1900
     23 C23        -5.0500    3.2272   65.9138 C.2     1  ZINC000174621331   -0.2100
     24 C24        -4.3766    2.0630   65.8891 C.2     1  ZINC000174621331    0.0000
     25 C25        -2.8783    1.9125   65.8307 C.3     1  ZINC000174621331   -0.0800
     26 O26        -5.2659    1.0574   65.9319 O.3     1  ZINC000174621331   -0.1600
     27 H27       -10.1807    3.5648   67.1994 H       1  ZINC000174621331    0.0400
     28 H28        -9.4644    3.4069   65.5776 H       1  ZINC000174621331    0.0400
     29 H29       -11.2105    3.1496   65.8082 H       1  ZINC000174621331    0.0900
     30 H30        -8.2861    2.2738   67.4736 H       1  ZINC000174621331    0.0700
     31 H31        -8.8434    0.6375   67.8984 H       1  ZINC000174621331    0.0700
     32 H32        -8.4565    1.6269   64.2085 H       1  ZINC000174621331    0.4100
     33 H33       -10.5043    1.7051   63.1905 H       1  ZINC000174621331    0.1400
     34 H34       -11.1727    2.8148   60.3629 H       1  ZINC000174621331    0.0800
     35 H35       -12.6341    1.8109   60.2040 H       1  ZINC000174621331    0.0800
     36 H36       -12.2521    2.5868   61.7598 H       1  ZINC000174621331    0.0700
     37 H37       -10.9269    0.2825   58.3452 H       1  ZINC000174621331    0.1100
     38 H38       -11.8902   -1.1491   58.7825 H       1  ZINC000174621331    0.0700
     39 H39       -12.5046    0.4816   59.1450 H       1  ZINC000174621331    0.0900
     40 H40        -7.9961   -3.3407   60.3957 H       1  ZINC000174621331    0.4200
     41 H41        -9.1170   -4.5848   60.5309 H       1  ZINC000174621331    0.4200
     42 H42        -9.0194   -2.2219   62.3148 H       1  ZINC000174621331    0.1600
     43 H43        -7.2495    3.6009   65.9998 H       1  ZINC000174621331    0.1500
     44 H44        -4.6222    4.2187   65.8948 H       1  ZINC000174621331    0.1500
     45 H45        -2.4769    1.8777   66.8435 H       1  ZINC000174621331    0.0800
     46 H46        -2.6259    0.9901   65.3079 H       1  ZINC000174621331    0.0800
     47 H47        -2.4483    2.7611   65.2985 H       1  ZINC000174621331    0.0900
@<TRIPOS>BOND
     1     1     2    1
     2     1    27    1
     3     1    28    1
     4     1    29    1
     5     2     3    1
     6     3     4    1
     7     3    30    1
     8     3    31    1
     9     4     5    1
    10     4     6    1
    11     4    21    1
    12     6     7   am
    13     6    32    1
    14     7     8    2
    15     7     9    1
    16     9    20   ar
    17     9    10   ar
    18    10    11   ar
    19    10    33    1
    20    11    12    1
    21    11    13   ar
    22    12    34    1
    23    12    35    1
    24    12    36    1
    25    13    14    1
    26    13    15   ar
    27    14    37    1
    28    14    38    1
    29    14    39    1
    30    15    16    1
    31    15    20   ar
    32    16    17   am
    33    16    18    2
    34    16    19    2
    35    17    40    1
    36    17    41    1
    37    20    42    1
    38    21    26    1
    39    21    22    2
    40    22    23    1
    41    22    43    1
    42    23    24    2
    43    23    44    1
    44    24    25    1
    45    24    26    1
    46    25    45    1
    47    25    46    1
    48    25    47    1
@<TRIPOS>SUBSTRUCTURE
     1 ZINC000174621331        1 TEMP              0 ****  ****    0 ROOT


##########                                Name:    ZINC001090961577
##########                DOCK_Rotatable_Bonds:                   9
##########                         Heavy_Atoms:                  24
##########                    Molecular_Weight:             352.458
##########                DOCK_Rotatable_Bonds:                   9
##########                       Formal_Charge:                0.02
##########                     HBond_Acceptors:                   8
##########                        HBond_Donors:                   1
##########                         Heavy_Atoms:                  24
##########                          Grid_Score:          -34.644390
##########                     Grid_vdw_energy:          -33.931503
##########                      Grid_es_energy:           -0.712886
##########           Internal_energy_repulsive:           11.169035

@<TRIPOS>MOLECULE
ZINC001090961577
 48 49 1 0 0
SMALL
USER_CHARGES


@<TRIPOS>ATOM
      1 C1        -11.6363   -3.4228   52.3613 C.3     1  ZINC001090961577   -0.1400
      2 C2        -12.5627   -4.1893   53.3075 C.3     1  ZINC001090961577   -0.0900
      3 S3        -13.3453   -3.0276   54.4601 S.3     1  ZINC001090961577   -0.2700
      4 C4        -12.8697   -3.6811   56.0841 C.3     1  ZINC001090961577   -0.0700
      5 C5        -11.3453   -3.6679   56.2126 C.3     1  ZINC001090961577   -0.1200
      6 C6        -10.9570   -4.0264   57.6239 C.2     1  ZINC001090961577    0.5400
      7 O7        -11.0194   -5.1792   57.9958 O.2     1  ZINC001090961577   -0.5300
      8 N8        -10.5406   -3.0661   58.4729 N.am    1  ZINC001090961577   -0.6200
      9 C9        -10.4181   -1.6358   58.1552 C.3     1  ZINC001090961577    0.1100
     10 C10        -9.9344   -0.9220   59.4351 C.3     1  ZINC001090961577   -0.1100
     11 H11        -8.8522   -0.7929   59.4192 H       1  ZINC001090961577    0.0900
     12 C12       -10.6361    0.4275   59.6004 C.3     1  ZINC001090961577   -0.1400
     13 C13       -10.3535   -1.9045   60.5605 C.3     1  ZINC001090961577    0.1500
     14 H14       -11.4006   -1.7662   60.8300 H       1  ZINC001090961577    0.1200
     15 N15        -9.4886   -1.7587   61.7339 N.pl3   1  ZINC001090961577   -0.6700
     16 C16        -9.8582   -0.9182   62.7628 C.ar    1  ZINC001090961577    0.5900
     17 N17       -11.0491   -0.3349   62.7216 N.ar    1  ZINC001090961577   -0.5700
     18 C18       -11.4404    0.4760   63.6863 C.ar    1  ZINC001090961577    0.2700
     19 C19       -10.5768    0.7165   64.7638 C.ar    1  ZINC001090961577   -0.3000
     20 C20       -10.9721    1.6147   65.8640 C.2     1  ZINC001090961577    0.5300
     21 O21       -11.5012    1.1603   66.8590 O.2     1  ZINC001090961577   -0.5100
     22 O22       -10.7467    2.9395   65.7662 O.3     1  ZINC001090961577   -0.3600
     23 C23       -11.4175    3.6446   64.6885 C.3     1  ZINC001090961577    0.0400
     24 C24        -9.3280    0.0803   64.7682 C.ar    1  ZINC001090961577    0.2600
     25 N25        -9.0144   -0.7206   63.7676 N.ar    1  ZINC001090961577   -0.5700
     26 C26       -10.1385   -3.2749   59.8759 C.3     1  ZINC001090961577    0.0900
     27 H27       -11.1660   -4.1208   51.6688 H       1  ZINC001090961577    0.0700
     28 H28       -12.2158   -2.6895   51.8006 H       1  ZINC001090961577    0.0700
     29 H29       -10.8672   -2.9120   52.9406 H       1  ZINC001090961577    0.0700
     30 H30       -13.3318   -4.7001   52.7282 H       1  ZINC001090961577    0.0800
     31 H31       -11.9831   -4.9226   53.8683 H       1  ZINC001090961577    0.0800
     32 H32       -13.3059   -3.0609   56.8672 H       1  ZINC001090961577    0.0900
     33 H33       -13.2341   -4.7035   56.1852 H       1  ZINC001090961577    0.0900
     34 H34       -10.9160   -4.3939   55.5222 H       1  ZINC001090961577    0.1000
     35 H35       -10.9690   -2.6731   55.9739 H       1  ZINC001090961577    0.1000
     36 H36        -9.6917   -1.4947   57.3550 H       1  ZINC001090961577    0.0800
     37 H37       -11.3873   -1.2389   57.8531 H       1  ZINC001090961577    0.0800
     38 H38       -11.7143    0.2735   59.6440 H       1  ZINC001090961577    0.0600
     39 H39       -10.2993    0.9018   60.5223 H       1  ZINC001090961577    0.0600
     40 H40       -10.3947    1.0687   58.7527 H       1  ZINC001090961577    0.0700
     41 H41        -8.6559   -2.2535   61.7871 H       1  ZINC001090961577    0.4200
     42 H42       -12.4111    0.9476   63.6459 H       1  ZINC001090961577    0.1800
     43 H43       -11.1504    4.7008   64.7238 H       1  ZINC001090961577    0.1100
     44 H44       -11.1092    3.2236   63.7316 H       1  ZINC001090961577    0.0700
     45 H45       -12.4964    3.5386   64.8013 H       1  ZINC001090961577    0.0700
     46 H46        -8.6344    0.2400   65.5805 H       1  ZINC001090961577    0.1800
     47 H47       -10.7638   -4.0351   60.3441 H       1  ZINC001090961577    0.0900
     48 H48        -9.0884   -3.5630   59.9252 H       1  ZINC001090961577    0.0800
@<TRIPOS>BOND
     1     1     2    1
     2     1    27    1
     3     1    28    1
     4     1    29    1
     5     2     3    1
     6     2    30    1
     7     2    31    1
     8     3     4    1
     9     4     5    1
    10     4    32    1
    11     4    33    1
    12     5     6    1
    13     5    34    1
    14     5    35    1
    15     6     7    2
    16     6     8   am
    17     8    26    1
    18     8     9    1
    19     9    10    1
    20     9    36    1
    21     9    37    1
    22    10    11    1
    23    10    12    1
    24    10    13    1
    25    12    38    1
    26    12    39    1
    27    12    40    1
    28    13    14    1
    29    13    15    1
    30    13    26    1
    31    15    16    1
    32    15    41    1
    33    16    25   ar
    34    16    17   ar
    35    17    18   ar
    36    18    19   ar
    37    18    42    1
    38    19    20    1
    39    19    24   ar
    40    20    21    2
    41    20    22    1
    42    22    23    1
    43    23    43    1
    44    23    44    1
    45    23    45    1
    46    24    25   ar
    47    24    46    1
    48    26    47    1
    49    26    48    1
@<TRIPOS>SUBSTRUCTURE
     1 ZINC001090961577        1 TEMP              0 ****  ****    0 ROOT


##########                                Name:    ZINC000171059239
##########                DOCK_Rotatable_Bonds:                   8
##########                         Heavy_Atoms:                  25
##########                    Molecular_Weight:              333.39
##########                DOCK_Rotatable_Bonds:                   8
##########                       Formal_Charge:         1.10269e-06
##########                     HBond_Acceptors:                   5
##########                        HBond_Donors:                   4
##########                         Heavy_Atoms:                  25
##########                          Grid_Score:          -34.610416
##########                     Grid_vdw_energy:          -30.150076
##########                      Grid_es_energy:           -4.460340
##########           Internal_energy_repulsive:            7.343596

@<TRIPOS>MOLECULE
ZINC000171059239
 44 46 1 0 0
SMALL
USER_CHARGES


@<TRIPOS>ATOM
      1 N1         -4.7752    1.0786   64.4072 N.am    1  ZINC000171059239   -0.8500
      2 C2         -5.2184    1.3216   65.6565 C.2     1  ZINC000171059239    0.5600
      3 O3         -4.4277    1.5848   66.5414 O.2     1  ZINC000171059239   -0.5400
      4 C4         -6.6664    1.2679   65.9507 C.ar    1  ZINC000171059239   -0.1400
      5 C5         -7.1237    1.4542   67.2560 C.ar    1  ZINC000171059239   -0.0900
      6 C6         -8.4763    1.4032   67.5237 C.ar    1  ZINC000171059239   -0.1200
      7 C7         -9.3783    1.1676   66.5016 C.ar    1  ZINC000171059239   -0.0800
      8 C8         -8.9315    0.9816   65.2052 C.ar    1  ZINC000171059239   -0.0900
      9 C9         -9.9213    0.7251   64.0983 C.3     1  ZINC000171059239   -0.0900
     10 C10       -10.0047   -0.7783   63.8270 C.3     1  ZINC000171059239    0.1400
     11 N11        -9.2377   -1.1002   62.6209 N.am    1  ZINC000171059239   -0.7400
     12 C12        -9.8491   -1.1247   61.4201 C.2     1  ZINC000171059239    0.7000
     13 O13       -11.0369   -0.8784   61.3375 O.2     1  ZINC000171059239   -0.5700
     14 N14        -9.1439   -1.4224   60.3108 N.am    1  ZINC000171059239   -0.6800
     15 C15        -9.7773   -1.4479   59.0667 C.ar    1  ZINC000171059239    0.1700
     16 C16       -10.2420   -2.6670   58.5294 C.ar    1  ZINC000171059239   -0.0600
     17 C17       -10.0823   -3.8767   59.2233 C.ar    1  ZINC000171059239   -0.1100
     18 C18       -10.5433   -5.0344   58.6747 C.ar    1  ZINC000171059239   -0.1100
     19 C19       -11.1727   -5.0376   57.4315 C.ar    1  ZINC000171059239   -0.1200
     20 C20       -11.3448   -3.8838   56.7304 C.ar    1  ZINC000171059239   -0.1000
     21 C21       -10.8822   -2.6691   57.2655 C.ar    1  ZINC000171059239   -0.0400
     22 C22       -11.0432   -1.4588   56.5700 C.ar    1  ZINC000171059239   -0.1200
     23 C23       -10.5854   -0.2968   57.1124 C.ar    1  ZINC000171059239   -0.0900
     24 C24        -9.9594   -0.2817   58.3551 C.ar    1  ZINC000171059239   -0.1200
     25 C25        -7.5823    1.0364   64.9230 C.ar    1  ZINC000171059239   -0.0500
     26 H26        -3.8253    1.1150   64.2139 H       1  ZINC000171059239    0.4100
     27 H27        -5.4058    0.8635   63.7021 H       1  ZINC000171059239    0.4000
     28 H28        -6.4203    1.6374   68.0548 H       1  ZINC000171059239    0.1300
     29 H29        -8.8315    1.5472   68.5334 H       1  ZINC000171059239    0.1300
     30 H30       -10.4360    1.1284   66.7166 H       1  ZINC000171059239    0.1300
     31 H31       -10.9025    1.0958   64.3951 H       1  ZINC000171059239    0.0800
     32 H32        -9.5967    1.2400   63.1941 H       1  ZINC000171059239    0.0800
     33 H33        -9.5930   -1.3241   64.6758 H       1  ZINC000171059239    0.0700
     34 H34       -11.0466   -1.0640   63.6820 H       1  ZINC000171059239    0.0700
     35 H35        -8.2898   -1.2955   62.6867 H       1  ZINC000171059239    0.4000
     36 H36        -8.1963   -1.6189   60.3767 H       1  ZINC000171059239    0.4100
     37 H37        -9.5957   -3.8891   60.1875 H       1  ZINC000171059239    0.1200
     38 H38       -10.4192   -5.9637   59.2108 H       1  ZINC000171059239    0.1200
     39 H39       -11.5288   -5.9696   57.0179 H       1  ZINC000171059239    0.1200
     40 H40       -11.8341   -3.9015   55.7677 H       1  ZINC000171059239    0.1300
     41 H41       -11.5293   -1.4503   55.6056 H       1  ZINC000171059239    0.1300
     42 H42       -10.7135    0.6288   56.5709 H       1  ZINC000171059239    0.1300
     43 H43        -9.6056    0.6534   58.7634 H       1  ZINC000171059239    0.1400
     44 H44        -7.2349    0.8913   63.9108 H       1  ZINC000171059239    0.1400
@<TRIPOS>BOND
     1     1     2   am
     2     1    26    1
     3     1    27    1
     4     2     3    2
     5     2     4    1
     6     4    25   ar
     7     4     5   ar
     8     5     6   ar
     9     5    28    1
    10     6     7   ar
    11     6    29    1
    12     7     8   ar
    13     7    30    1
    14     8     9    1
    15     8    25   ar
    16     9    10    1
    17     9    31    1
    18     9    32    1
    19    10    11    1
    20    10    33    1
    21    10    34    1
    22    11    12   am
    23    11    35    1
    24    12    13    2
    25    12    14   am
    26    14    15    1
    27    14    36    1
    28    15    24   ar
    29    15    16   ar
    30    16    21   ar
    31    16    17   ar
    32    17    18   ar
    33    17    37    1
    34    18    19   ar
    35    18    38    1
    36    19    20   ar
    37    19    39    1
    38    20    21   ar
    39    20    40    1
    40    21    22   ar
    41    22    23   ar
    42    22    41    1
    43    23    24   ar
    44    23    42    1
    45    24    43    1
    46    25    44    1
@<TRIPOS>SUBSTRUCTURE
     1 ZINC000171059239        1 TEMP              0 ****  ****    0 ROOT


##########                                Name:    ZINC000342525234
##########                DOCK_Rotatable_Bonds:                   6
##########                         Heavy_Atoms:                  25
##########                    Molecular_Weight:             333.349
##########                DOCK_Rotatable_Bonds:                   6
##########                       Formal_Charge:           0.0500003
##########                     HBond_Acceptors:                   7
##########                        HBond_Donors:                   2
##########                         Heavy_Atoms:                  25
##########                          Grid_Score:          -34.588619
##########                     Grid_vdw_energy:          -32.309654
##########                      Grid_es_energy:           -2.278966
##########           Internal_energy_repulsive:            5.841200

@<TRIPOS>MOLECULE
ZINC000342525234
 40 43 1 0 0
SMALL
USER_CHARGES


@<TRIPOS>ATOM
      1 O1        -13.7354   -2.8515   53.5937 O.2     1  <0>        -0.5100
      2 C2        -13.0530   -2.4384   54.5101 C.2     1  <0>         0.6000
      3 N3        -13.3664   -2.7587   55.7812 N.am    1  <0>        -0.7100
      4 C4        -14.5333   -3.6000   56.0583 C.3     1  <0>         0.1200
      5 C5        -14.1892   -4.6019   57.1623 C.3     1  <0>        -0.0900
      6 C6        -13.1313   -4.0153   58.0610 C.ar    1  <0>        -0.0400
      7 C7        -11.8365   -4.3758   57.8780 C.ar    1  <0>        -0.1000
      8 C8        -10.8370   -3.8327   58.7137 C.ar    1  <0>         0.1100
      9 N9         -9.5263   -3.9680   58.8023 N.2     1  <0>        -0.3100
     10 N10        -9.0558   -3.1650   59.8475 N.pl3   1  <0>        -0.4200
     11 C11       -10.0783   -2.5178   60.4228 C.2     1  <0>         0.0900
     12 C12       -11.2377   -2.8850   59.7653 C.ar    1  <0>        -0.2100
     13 C13       -12.6035   -2.5554   59.8980 C.ar    1  <0>        -0.0400
     14 C14       -13.5103   -3.1110   59.0558 C.ar    1  <0>        -0.1500
     15 C15       -11.8715   -1.5864   54.2297 C.2     1  <0>        -0.0200
     16 N16       -11.4488   -0.5700   54.9409 N.2     1  <0>        -0.3200
     17 O17       -10.4582   -0.0693   54.4624 O.3     1  <0>         0.1400
     18 C18       -10.0748   -0.6994   53.3381 C.2     1  <0>         0.0100
     19 C19        -8.9121   -0.3653   52.4874 C.ar    1  <0>         0.0200
     20 C20        -8.3359    0.9097   52.5253 C.ar    1  <0>        -0.1400
     21 C21        -7.2520    1.1780   51.7150 C.ar    1  <0>         0.1100
     22 N22        -6.7600    0.2531   50.9132 N.ar    1  <0>        -0.4800
     23 C23        -7.2728   -0.9607   50.8466 C.ar    1  <0>         0.1100
     24 C24        -8.3538   -1.3168   51.6262 C.ar    1  <0>        -0.1500
     25 C25       -10.9693   -1.7136   53.1408 C.2     1  <0>        -0.1500
     26 H26       -12.8193   -2.4321   56.5126 H       1  <0>         0.4100
     27 H27       -15.3643   -2.9735   56.3822 H       1  <0>         0.0800
     28 H28       -14.8156   -4.1388   55.1538 H       1  <0>         0.0800
     29 H29       -15.0830   -4.8193   57.7470 H       1  <0>         0.0900
     30 H30       -13.8154   -5.5224   56.7138 H       1  <0>         0.0800
     31 H31       -11.5721   -5.0741   57.0979 H       1  <0>         0.1300
     32 H32        -8.1269   -3.0883   60.1160 H       1  <0>         0.4500
     33 H33       -10.0092   -1.8312   61.2535 H       1  <0>         0.1900
     34 H34       -12.9240   -1.8623   60.6617 H       1  <0>         0.1300
     35 H35       -14.5539   -2.8540   59.1628 H       1  <0>         0.1200
     36 H36        -8.7338    1.6719   53.1787 H       1  <0>         0.1400
     37 H37        -6.8003    2.1588   51.7371 H       1  <0>         0.1700
     38 H38        -6.8377   -1.6865   50.1757 H       1  <0>         0.1700
     39 H39        -8.7684   -2.3123   51.5666 H       1  <0>         0.1500
     40 H40       -10.9892   -2.4383   52.3403 H       1  <0>         0.1900
@<TRIPOS>BOND
     1     1     2    2
     2     2     3   am
     3     2    15    1
     4     3     4    1
     5     3    26    1
     6     4     5    1
     7     4    27    1
     8     4    28    1
     9     5     6    1
    10     5    29    1
    11     5    30    1
    12     6    14   ar
    13     6     7   ar
    14     7     8   ar
    15     7    31    1
    16     8    12   ar
    17     8     9    2
    18     9    10    1
    19    10    11    1
    20    10    32    1
    21    11    12    2
    22    11    33    1
    23    12    13   ar
    24    13    14   ar
    25    13    34    1
    26    14    35    1
    27    15    25    1
    28    15    16    2
    29    16    17    1
    30    17    18    1
    31    18    19    1
    32    18    25    2
    33    19    24   ar
    34    19    20   ar
    35    20    21   ar
    36    20    36    1
    37    21    22   ar
    38    21    37    1
    39    22    23   ar
    40    23    24   ar
    41    23    38    1
    42    24    39    1
    43    25    40    1
@<TRIPOS>SUBSTRUCTURE
     1 <0>         1 TEMP              0 ****  ****    0 ROOT


##########                                Name:    ZINC001009116151
##########                DOCK_Rotatable_Bonds:                   6
##########                         Heavy_Atoms:                  25
##########                    Molecular_Weight:             342.481
##########                DOCK_Rotatable_Bonds:                   6
##########                       Formal_Charge:           0.0600006
##########                     HBond_Acceptors:                   4
##########                        HBond_Donors:                   1
##########                         Heavy_Atoms:                  25
##########                          Grid_Score:          -34.582462
##########                     Grid_vdw_energy:          -33.712925
##########                      Grid_es_energy:           -0.869537
##########           Internal_energy_repulsive:           15.239037

@<TRIPOS>MOLECULE
ZINC001009116151
 55 59 1 0 0
SMALL
USER_CHARGES


@<TRIPOS>ATOM
      1 O1        -11.0638   -5.1558   57.6004 O.2     1  ZINC001009116151   -0.5400
      2 C2        -11.8164   -4.2561   57.9087 C.2     1  ZINC001009116151    0.5200
      3 N3        -13.1196   -4.3224   57.5716 N.am    1  ZINC001009116151   -0.7300
      4 C4        -13.6260   -5.4783   56.8276 C.3     1  ZINC001009116151    0.1500
      5 C5        -13.6857   -5.1391   55.3369 C.3     1  ZINC001009116151   -0.1200
      6 H6        -13.9416   -5.9679   54.6767 H       1  ZINC001009116151    0.1100
      7 C7        -12.6962   -4.0977   54.8104 C.3     1  ZINC001009116151   -0.1700
      8 H8        -11.9442   -3.6834   55.4819 H       1  ZINC001009116151    0.1200
      9 C9        -12.3895   -4.0850   53.2973 C.3     1  ZINC001009116151    0.1300
     10 N10       -13.4376   -3.2175   52.7108 N.am    1  ZINC001009116151   -0.6200
     11 C11       -13.3028   -2.3106   51.7230 C.2     1  ZINC001009116151    0.5500
     12 O12       -12.2201   -2.1333   51.2061 O.2     1  ZINC001009116151   -0.5300
     13 C13       -14.4975   -1.5168   51.2608 C.3     1  ZINC001009116151   -0.1200
     14 C14       -14.5424   -0.1313   51.9460 C.3     1  ZINC001009116151   -0.0900
     15 C15       -13.8317    0.7948   50.9865 C.2     1  ZINC001009116151   -0.1800
     16 C16       -13.7308    0.2567   49.8017 C.2     1  ZINC001009116151   -0.1500
     17 C17       -14.3573   -1.1181   49.7733 C.3     1  ZINC001009116151   -0.0900
     18 C18       -14.6673   -3.5732   53.4564 C.3     1  ZINC001009116151    0.1200
     19 C19       -14.1908   -3.7476   54.9500 C.3     1  ZINC001009116151   -0.1600
     20 H20       -14.5786   -3.0467   55.6892 H       1  ZINC001009116151    0.1300
     21 C21       -11.2956   -3.0669   58.6740 C.3     1  ZINC001009116151   -0.0700
     22 C22       -10.2504   -3.5322   59.6899 C.3     1  ZINC001009116151   -0.1100
     23 C23        -9.7217   -2.3249   60.4669 C.3     1  ZINC001009116151   -0.1100
     24 C24       -10.4144   -1.0548   59.9691 C.3     1  ZINC001009116151   -0.0900
     25 C25       -10.1263   -0.8677   58.4782 C.3     1  ZINC001009116151   -0.1100
     26 C26       -10.6550   -2.0750   57.7012 C.3     1  ZINC001009116151   -0.0900
     27 C27       -11.9239   -1.1791   60.1851 C.3     1  ZINC001009116151   -0.1100
     28 C28       -12.4527   -2.3864   59.4081 C.3     1  ZINC001009116151   -0.1000
     29 H29       -13.7224   -3.6046   57.8216 H       1  ZINC001009116151    0.4000
     30 H30       -12.9611   -6.3284   56.9804 H       1  ZINC001009116151    0.0800
     31 H31       -14.6251   -5.7300   57.1833 H       1  ZINC001009116151    0.0700
     32 H32       -11.4010   -3.6641   53.1133 H       1  ZINC001009116151    0.0900
     33 H33       -12.4568   -5.0927   52.8873 H       1  ZINC001009116151    0.0800
     34 H34       -15.4215   -2.0690   51.4324 H       1  ZINC001009116151    0.1100
     35 H35       -15.5745    0.1887   52.0883 H       1  ZINC001009116151    0.0900
     36 H36       -14.0185   -0.1631   52.9013 H       1  ZINC001009116151    0.0800
     37 H37       -13.4568    1.7736   51.2469 H       1  ZINC001009116151    0.1300
     38 H38       -13.2615    0.7317   48.9529 H       1  ZINC001009116151    0.1300
     39 H39       -13.7076   -1.8207   49.2515 H       1  ZINC001009116151    0.0900
     40 H40       -15.3367   -1.0793   49.2966 H       1  ZINC001009116151    0.0900
     41 H41       -15.3973   -2.7663   53.3925 H       1  ZINC001009116151    0.0900
     42 H42       -15.0903   -4.5010   53.0713 H       1  ZINC001009116151    0.0800
     43 H43       -10.7068   -4.2389   60.3830 H       1  ZINC001009116151    0.0700
     44 H44        -9.4261   -4.0171   59.1669 H       1  ZINC001009116151    0.0700
     45 H45        -9.9270   -2.4582   61.5292 H       1  ZINC001009116151    0.0700
     46 H46        -8.6463   -2.2363   60.3130 H       1  ZINC001009116151    0.0700
     47 H47       -10.0377   -0.1947   60.5228 H       1  ZINC001009116151    0.0700
     48 H48       -10.6198    0.0372   58.1236 H       1  ZINC001009116151    0.0700
     49 H49        -9.0508   -0.7792   58.3242 H       1  ZINC001009116151    0.0700
     50 H50        -9.8307   -2.5598   57.1782 H       1  ZINC001009116151    0.0700
     51 H51       -11.3996   -1.7436   56.9774 H       1  ZINC001009116151    0.0700
     52 H52       -12.1293   -1.3124   61.2474 H       1  ZINC001009116151    0.0700
     53 H53       -12.4175   -0.2742   59.8305 H       1  ZINC001009116151    0.0700
     54 H54       -13.1973   -2.0549   58.6844 H       1  ZINC001009116151    0.0700
     55 H55       -12.9091   -3.0931   60.1012 H       1  ZINC001009116151    0.0700
@<TRIPOS>BOND
     1     1     2    2
     2     2     3   am
     3     2    21    1
     4     3     4    1
     5     3    29    1
     6     4     5    1
     7     4    30    1
     8     4    31    1
     9     5     6    1
    10     5    19    1
    11     5     7    1
    12     7     8    1
    13     7    19    1
    14     7     9    1
    15     9    10    1
    16     9    32    1
    17     9    33    1
    18    10    11   am
    19    10    18    1
    20    11    12    2
    21    11    13    1
    22    13    17    1
    23    13    14    1
    24    13    34    1
    25    14    15    1
    26    14    35    1
    27    14    36    1
    28    15    16    2
    29    15    37    1
    30    16    17    1
    31    16    38    1
    32    17    39    1
    33    17    40    1
    34    18    19    1
    35    18    41    1
    36    18    42    1
    37    19    20    1
    38    21    26    1
    39    21    28    1
    40    21    22    1
    41    22    23    1
    42    22    43    1
    43    22    44    1
    44    23    24    1
    45    23    45    1
    46    23    46    1
    47    24    25    1
    48    24    27    1
    49    24    47    1
    50    25    26    1
    51    25    48    1
    52    25    49    1
    53    26    50    1
    54    26    51    1
    55    27    28    1
    56    27    52    1
    57    27    53    1
    58    28    54    1
    59    28    55    1
@<TRIPOS>SUBSTRUCTURE
     1 ZINC001009116151        1 TEMP              0 ****  ****    0 ROOT


##########                                Name:    ZINC000369046711
##########                DOCK_Rotatable_Bonds:                   8
##########                         Heavy_Atoms:                  26
##########                    Molecular_Weight:             367.467
##########                DOCK_Rotatable_Bonds:                   8
##########                       Formal_Charge:        -7.63685e-07
##########                     HBond_Acceptors:                   8
##########                        HBond_Donors:                   1
##########                         Heavy_Atoms:                  26
##########                          Grid_Score:          -34.543678
##########                     Grid_vdw_energy:          -33.936684
##########                      Grid_es_energy:           -0.606996
##########           Internal_energy_repulsive:           16.962955

@<TRIPOS>MOLECULE
ZINC000369046711
 56 58 1 0 0
SMALL
USER_CHARGES


@<TRIPOS>ATOM
      1 C1         -8.7324    1.1061   64.7823 C.3     1  ZINC000369046711   -0.1800
      2 C2        -10.2286    1.1841   64.4722 C.3     1  ZINC000369046711    0.1400
      3 C3        -10.9918    1.5795   65.7379 C.3     1  ZINC000369046711   -0.1800
      4 C4        -10.4698    2.2313   63.3832 C.3     1  ZINC000369046711   -0.1400
      5 O5        -10.6953   -0.1110   64.0103 O.3     1  ZINC000369046711   -0.3700
      6 C6        -10.1940   -0.5613   62.8447 C.2     1  ZINC000369046711    0.6500
      7 O7         -9.2113   -1.2760   62.8417 O.2     1  ZINC000369046711   -0.5700
      8 N8        -10.7820   -0.2192   61.6813 N.am    1  ZINC000369046711   -0.7100
      9 C9        -10.2375   -0.7107   60.4131 C.3     1  ZINC000369046711    0.1800
     10 H10        -9.1980   -1.0025   60.5623 H       1  ZINC000369046711    0.0900
     11 C11       -10.2964    0.4115   59.3774 C.3     1  ZINC000369046711   -0.1300
     12 C12       -11.7668    0.7952   59.1737 C.3     1  ZINC000369046711   -0.1200
     13 C13       -12.5004   -0.4045   58.5813 C.3     1  ZINC000369046711   -0.1200
     14 C14       -12.4694   -1.5960   59.5407 C.3     1  ZINC000369046711   -0.1000
     15 H15       -13.1416   -1.4573   60.3874 H       1  ZINC000369046711    0.0900
     16 C16       -12.8328   -2.8488   58.6974 C.3     1  ZINC000369046711    0.0400
     17 N17       -11.5634   -3.4173   58.2034 N.3     1  ZINC000369046711   -0.5200
     18 C18       -11.5456   -3.4686   56.7354 C.3     1  ZINC000369046711    0.1200
     19 C19       -12.5350   -4.4996   56.2567 C.2     1  ZINC000369046711    0.2900
     20 N20       -12.9389   -5.5469   56.9286 N.2     1  ZINC000369046711   -0.5400
     21 C21       -13.8144   -6.2401   56.2018 C.2     1  ZINC000369046711    0.2000
     22 N22       -13.9804   -5.6408   55.0521 N.2     1  ZINC000369046711   -0.3200
     23 N23       -13.1609   -4.5004   55.0669 N.pl3   1  ZINC000369046711   -0.3700
     24 C24       -13.0106   -3.5131   53.9951 C.3     1  ZINC000369046711    0.1000
     25 C25       -11.9419   -3.9892   53.0093 C.3     1  ZINC000369046711    0.0500
     26 F26       -10.7243   -4.1448   53.6806 F       1  ZINC000369046711   -0.2000
     27 C27       -10.4447   -2.5933   58.7199 C.3     1  ZINC000369046711    0.0500
     28 C28       -11.0282   -1.9163   59.9731 C.3     1  ZINC000369046711   -0.1000
     29 H29       -11.0524   -2.6363   60.7910 H       1  ZINC000369046711    0.0900
     30 H30        -8.5606    0.3600   65.5582 H       1  ZINC000369046711    0.0900
     31 H31        -8.1887    0.8244   63.8806 H       1  ZINC000369046711    0.0600
     32 H32        -8.3821    2.0782   65.1291 H       1  ZINC000369046711    0.0700
     33 H33       -10.6416    2.5516   66.0847 H       1  ZINC000369046711    0.0700
     34 H34       -12.0578    1.6350   65.5170 H       1  ZINC000369046711    0.0600
     35 H35       -10.8200    0.8334   66.5138 H       1  ZINC000369046711    0.0900
     36 H36        -9.9260    1.9496   62.4814 H       1  ZINC000369046711    0.0700
     37 H37       -11.5358    2.2869   63.1623 H       1  ZINC000369046711    0.0700
     38 H38       -10.1195    3.2034   63.7300 H       1  ZINC000369046711    0.0800
     39 H39       -11.5657    0.3523   61.6836 H       1  ZINC000369046711    0.4000
     40 H40        -9.7372    1.2749   59.7379 H       1  ZINC000369046711    0.0700
     41 H41        -9.8723    0.0652   58.4348 H       1  ZINC000369046711    0.0800
     42 H42       -12.2128    1.0615   60.1319 H       1  ZINC000369046711    0.0600
     43 H43       -11.8340    1.6410   58.4893 H       1  ZINC000369046711    0.0700
     44 H44       -13.5369   -0.1293   58.3858 H       1  ZINC000369046711    0.0700
     45 H45       -12.0233   -0.6880   57.6431 H       1  ZINC000369046711    0.0600
     46 H46       -13.3505   -3.5790   59.3195 H       1  ZINC000369046711    0.0800
     47 H47       -13.4641   -2.5613   57.8566 H       1  ZINC000369046711    0.0800
     48 H48       -11.8161   -2.4917   56.3344 H       1  ZINC000369046711    0.0800
     49 H49       -10.5463   -3.7377   56.3934 H       1  ZINC000369046711    0.1000
     50 H50       -14.3066   -7.1501   56.5120 H       1  ZINC000369046711    0.2200
     51 H51       -13.9603   -3.3962   53.4730 H       1  ZINC000369046711    0.1200
     52 H52       -12.7106   -2.5562   54.4221 H       1  ZINC000369046711    0.1100
     53 H53       -12.2441   -4.9440   52.5789 H       1  ZINC000369046711    0.0900
     54 H54       -11.8269   -3.2524   52.2143 H       1  ZINC000369046711    0.0800
     55 H55        -9.5963   -3.2241   58.9850 H       1  ZINC000369046711    0.0900
     56 H56       -10.1503   -1.8447   57.9843 H       1  ZINC000369046711    0.0600
@<TRIPOS>BOND
     1     1     2    1
     2     1    30    1
     3     1    31    1
     4     1    32    1
     5     2     3    1
     6     2     4    1
     7     2     5    1
     8     3    33    1
     9     3    34    1
    10     3    35    1
    11     4    36    1
    12     4    37    1
    13     4    38    1
    14     5     6    1
    15     6     7    2
    16     6     8   am
    17     8     9    1
    18     8    39    1
    19     9    10    1
    20     9    28    1
    21     9    11    1
    22    11    12    1
    23    11    40    1
    24    11    41    1
    25    12    13    1
    26    12    42    1
    27    12    43    1
    28    13    14    1
    29    13    44    1
    30    13    45    1
    31    14    15    1
    32    14    28    1
    33    14    16    1
    34    16    17    1
    35    16    46    1
    36    16    47    1
    37    17    18    1
    38    17    27    1
    39    18    19    1
    40    18    48    1
    41    18    49    1
    42    19    23    1
    43    19    20    2
    44    20    21    1
    45    21    22    2
    46    21    50    1
    47    22    23    1
    48    23    24    1
    49    24    25    1
    50    24    51    1
    51    24    52    1
    52    25    26    1
    53    25    53    1
    54    25    54    1
    55    27    28    1
    56    27    55    1
    57    27    56    1
    58    28    29    1
@<TRIPOS>SUBSTRUCTURE
     1 ZINC000369046711        1 TEMP              0 ****  ****    0 ROOT


##########                                Name:    ZINC000506156755
##########                DOCK_Rotatable_Bonds:                   7
##########                         Heavy_Atoms:                  30
##########                    Molecular_Weight:             400.434
##########                DOCK_Rotatable_Bonds:                   7
##########                       Formal_Charge:          -0.0200001
##########                     HBond_Acceptors:                   6
##########                        HBond_Donors:                   1
##########                         Heavy_Atoms:                  30
##########                          Grid_Score:          -34.536022
##########                     Grid_vdw_energy:          -32.974850
##########                      Grid_es_energy:           -1.561171
##########           Internal_energy_repulsive:           15.738701

@<TRIPOS>MOLECULE
ZINC000506156755
 50 53 1 0 0
SMALL
USER_CHARGES


@<TRIPOS>ATOM
      1 C1        -11.5146   -3.5141   52.8946 C.3     1  ZINC000506156755   -0.1600
      2 C2        -12.4490   -3.0009   53.9919 C.3     1  ZINC000506156755    0.1900
      3 H3        -12.1895   -1.9713   54.2380 H       1  ZINC000506156755    0.1000
      4 N4        -12.3073   -3.8388   55.1853 N.am    1  ZINC000506156755   -0.7200
      5 C5        -12.3125   -3.2747   56.4093 C.2     1  ZINC000506156755    0.5000
      6 O6        -12.4328   -2.0733   56.5227 O.2     1  ZINC000506156755   -0.5200
      7 C7        -12.1686   -4.1368   57.6369 C.3     1  ZINC000506156755    0.0900
      8 N8        -11.8129   -3.2978   58.7839 N.am    1  ZINC000506156755   -0.5600
      9 C9        -10.5840   -3.2328   59.3273 C.2     1  ZINC000506156755    0.5800
     10 O10        -9.6088   -3.8509   58.9508 O.2     1  ZINC000506156755   -0.4600
     11 C11       -10.6191   -2.2826   60.4591 C.ar    1  ZINC000506156755   -0.1400
     12 C12        -9.6789   -1.8247   61.3675 C.ar    1  ZINC000506156755   -0.0400
     13 C13       -10.0501   -0.9048   62.3362 C.ar    1  ZINC000506156755   -0.0900
     14 C14       -11.3506   -0.4422   62.4012 C.ar    1  ZINC000506156755   -0.0900
     15 C15       -12.3024   -0.8917   61.4987 C.ar    1  ZINC000506156755   -0.0400
     16 C16       -11.9460   -1.8108   60.5255 C.ar    1  ZINC000506156755   -0.1400
     17 C17       -12.6707   -2.4865   59.4286 C.2     1  ZINC000506156755    0.5800
     18 O18       -13.8446   -2.3360   59.1562 O.2     1  ZINC000506156755   -0.4600
     19 C19       -13.8741   -3.0570   53.5049 C.ar    1  ZINC000506156755   -0.1200
     20 C20       -14.6911   -4.1063   53.8778 C.ar    1  ZINC000506156755   -0.0800
     21 C21       -15.9990   -4.1583   53.4317 C.ar    1  ZINC000506156755   -0.1400
     22 C22       -16.4924   -3.1604   52.6117 C.ar    1  ZINC000506156755   -0.0800
     23 C23       -15.6794   -2.1086   52.2358 C.ar    1  ZINC000506156755   -0.1900
     24 C24       -14.3684   -2.0514   52.6862 C.ar    1  ZINC000506156755    0.1300
     25 O25       -13.5668   -1.0177   52.3183 O.3     1  ZINC000506156755   -0.2500
     26 C26       -13.6489   -0.5713   51.0375 C.ar    1  ZINC000506156755    0.0800
     27 C27       -13.9131   -1.4616   50.0067 C.ar    1  ZINC000506156755   -0.1400
     28 C28       -13.9959   -1.0052   48.7055 C.ar    1  ZINC000506156755   -0.1000
     29 C29       -13.8158    0.3378   48.4300 C.ar    1  ZINC000506156755   -0.1200
     30 C30       -13.5523    1.2271   49.4554 C.ar    1  ZINC000506156755   -0.1000
     31 C31       -13.4741    0.7768   50.7589 C.ar    1  ZINC000506156755   -0.1200
     32 H32       -10.4838   -3.4735   53.2468 H       1  ZINC000506156755    0.0700
     33 H33       -11.7741   -4.5437   52.6484 H       1  ZINC000506156755    0.0600
     34 H34       -11.6199   -2.8907   52.0067 H       1  ZINC000506156755    0.0700
     35 H35       -12.2100   -4.7997   55.0945 H       1  ZINC000506156755    0.4000
     36 H36       -13.1121   -4.6446   57.8369 H       1  ZINC000506156755    0.1300
     37 H37       -11.3856   -4.8769   57.4714 H       1  ZINC000506156755    0.1300
     38 H38        -8.6611   -2.1830   61.3216 H       1  ZINC000506156755    0.1400
     39 H39        -9.3178   -0.5475   63.0450 H       1  ZINC000506156755    0.1400
     40 H40       -11.6277    0.2740   63.1606 H       1  ZINC000506156755    0.1400
     41 H41       -13.3173   -0.5264   61.5540 H       1  ZINC000506156755    0.1400
     42 H42       -14.3081   -4.8873   54.5180 H       1  ZINC000506156755    0.1300
     43 H43       -16.6361   -4.9799   53.7241 H       1  ZINC000506156755    0.1300
     44 H44       -17.5141   -3.2034   52.2644 H       1  ZINC000506156755    0.1300
     45 H45       -16.0651   -1.3296   51.5950 H       1  ZINC000506156755    0.1300
     46 H46       -14.0536   -2.5107   50.2213 H       1  ZINC000506156755    0.1300
     47 H47       -14.2013   -1.6979   47.9028 H       1  ZINC000506156755    0.1300
     48 H48       -13.8806    0.6926   47.4119 H       1  ZINC000506156755    0.1300
     49 H49       -13.4120    2.2756   49.2375 H       1  ZINC000506156755    0.1300
     50 H50       -13.2686    1.4719   51.5595 H       1  ZINC000506156755    0.1300
@<TRIPOS>BOND
     1     1     2    1
     2     1    32    1
     3     1    33    1
     4     1    34    1
     5     2     3    1
     6     2     4    1
     7     2    19    1
     8     4     5   am
     9     4    35    1
    10     5     6    2
    11     5     7    1
    12     7     8    1
    13     7    36    1
    14     7    37    1
    15     8    17   am
    16     8     9   am
    17     9    10    2
    18     9    11    1
    19    11    16   ar
    20    11    12   ar
    21    12    13   ar
    22    12    38    1
    23    13    14   ar
    24    13    39    1
    25    14    15   ar
    26    14    40    1
    27    15    16   ar
    28    15    41    1
    29    16    17    1
    30    17    18    2
    31    19    24   ar
    32    19    20   ar
    33    20    21   ar
    34    20    42    1
    35    21    22   ar
    36    21    43    1
    37    22    23   ar
    38    22    44    1
    39    23    24   ar
    40    23    45    1
    41    24    25    1
    42    25    26    1
    43    26    31   ar
    44    26    27   ar
    45    27    28   ar
    46    27    46    1
    47    28    29   ar
    48    28    47    1
    49    29    30   ar
    50    29    48    1
    51    30    31   ar
    52    30    49    1
    53    31    50    1
@<TRIPOS>SUBSTRUCTURE
     1 ZINC000506156755        1 TEMP              0 ****  ****    0 ROOT


##########                                Name:    ZINC000470948647
##########                DOCK_Rotatable_Bonds:                   6
##########                         Heavy_Atoms:                  29
##########                    Molecular_Weight:             412.556
##########                DOCK_Rotatable_Bonds:                   6
##########                       Formal_Charge:           0.0100001
##########                     HBond_Acceptors:                   7
##########                        HBond_Donors:                   1
##########                         Heavy_Atoms:                  29
##########                          Grid_Score:          -34.507538
##########                     Grid_vdw_energy:          -33.366508
##########                      Grid_es_energy:           -1.141029
##########           Internal_energy_repulsive:           16.661579

@<TRIPOS>MOLECULE
ZINC000470948647
 57 60 1 0 0
SMALL
USER_CHARGES


@<TRIPOS>ATOM
      1 C1         -9.8744   -0.4896   62.9560 C.3     1  ZINC000470948647   -0.1100
      2 C2        -10.9571   -0.9546   62.0166 C.ar    1  ZINC000470948647   -0.1000
      3 C3        -12.2842   -0.7132   62.3201 C.ar    1  ZINC000470948647   -0.1100
      4 C4        -13.2790   -1.1382   61.4611 C.ar    1  ZINC000470948647   -0.1100
      5 C5        -12.9451   -1.8081   60.2917 C.ar    1  ZINC000470948647    0.1400
      6 N6        -13.9503   -2.2396   59.4193 N.am    1  ZINC000470948647   -0.6700
      7 C7        -14.7862   -3.2293   59.7911 C.2     1  ZINC000470948647    0.5100
      8 O8        -14.6671   -3.7460   60.8820 O.2     1  ZINC000470948647   -0.4800
      9 C9        -15.8689   -3.6940   58.8515 C.3     1  ZINC000470948647    0.1200
     10 H10       -16.1315   -4.7218   59.1017 H       1  ZINC000470948647    0.1200
     11 C11       -17.1148   -2.8008   59.0484 C.3     1  ZINC000470948647   -0.0700
     12 S12       -16.9200   -1.5983   57.6668 S.3     1  ZINC000470948647   -0.2500
     13 C13       -16.1134   -2.8194   56.5502 C.3     1  ZINC000470948647    0.1600
     14 N14       -15.3538   -3.6608   57.4911 N.am    1  ZINC000470948647   -0.6000
     15 C15       -14.2596   -4.3542   57.1191 C.2     1  ZINC000470948647    0.6300
     16 O16       -13.6666   -5.0361   57.9324 O.2     1  ZINC000470948647   -0.5100
     17 C17       -13.7810   -4.2859   55.7234 C.2     1  ZINC000470948647   -0.0100
     18 N18       -13.3546   -3.2102   55.0922 N.2     1  ZINC000470948647   -0.2700
     19 N19       -13.0145   -3.5101   53.8902 N.pl3   1  ZINC000470948647   -0.2700
     20 C20       -12.4951   -2.5589   52.9044 C.3     1  ZINC000470948647    0.1500
     21 C21       -13.0811   -1.1719   53.1759 C.3     1  ZINC000470948647   -0.1300
     22 C22       -12.5385   -0.1786   52.1464 C.3     1  ZINC000470948647   -0.1200
     23 C23       -11.0134   -0.1174   52.2512 C.3     1  ZINC000470948647   -0.1300
     24 C24       -10.4274   -1.5044   51.9797 C.3     1  ZINC000470948647   -0.1200
     25 C25       -10.9699   -2.4977   53.0092 C.3     1  ZINC000470948647   -0.1300
     26 C26       -13.2045   -4.8281   53.6662 C.2     1  ZINC000470948647   -0.0100
     27 C27       -13.6871   -5.3640   54.8117 C.2     1  ZINC000470948647   -0.1700
     28 C28       -11.6109   -2.0488   59.9895 C.ar    1  ZINC000470948647   -0.1100
     29 C29       -11.2439   -2.7752   58.7212 C.3     1  ZINC000470948647   -0.1100
     30 C30       -10.6209   -1.6170   60.8500 C.ar    1  ZINC000470948647   -0.1000
     31 H31        -9.5680    0.5210   62.6854 H       1  ZINC000470948647    0.0700
     32 H32       -10.2538   -0.4928   63.9778 H       1  ZINC000470948647    0.0700
     33 H33        -9.0182   -1.1603   62.8842 H       1  ZINC000470948647    0.0700
     34 H34       -12.5434   -0.1920   63.2297 H       1  ZINC000470948647    0.1200
     35 H35       -14.3156   -0.9499   61.6990 H       1  ZINC000470948647    0.1400
     36 H36       -14.0457   -1.8263   58.5469 H       1  ZINC000470948647    0.4100
     37 H37       -18.0324   -3.3788   58.9380 H       1  ZINC000470948647    0.1200
     38 H38       -17.0860   -2.2959   60.0140 H       1  ZINC000470948647    0.1200
     39 H39       -16.8601   -3.4089   56.0183 H       1  ZINC000470948647    0.1000
     40 H40       -15.4433   -2.3199   55.8505 H       1  ZINC000470948647    0.1400
     41 H41       -12.7776   -2.8830   51.9028 H       1  ZINC000470948647    0.1100
     42 H42       -14.1676   -1.2155   53.1012 H       1  ZINC000470948647    0.0800
     43 H43       -12.7984   -0.8478   54.1775 H       1  ZINC000470948647    0.0800
     44 H44       -12.8211   -0.5027   51.1448 H       1  ZINC000470948647    0.0700
     45 H45       -12.9560    0.8096   52.3398 H       1  ZINC000470948647    0.0800
     46 H46       -10.6268    0.5902   51.5178 H       1  ZINC000470948647    0.0700
     47 H47       -10.7307    0.2067   53.2529 H       1  ZINC000470948647    0.0700
     48 H48       -10.7100   -1.8285   50.9782 H       1  ZINC000470948647    0.0700
     49 H49        -9.3408   -1.4608   52.0545 H       1  ZINC000470948647    0.0700
     50 H50       -10.6873   -2.1736   54.0109 H       1  ZINC000470948647    0.0700
     51 H51       -10.5525   -3.4859   52.8159 H       1  ZINC000470948647    0.0700
     52 H52       -13.0041   -5.3569   52.7461 H       1  ZINC000470948647    0.1800
     53 H53       -13.9516   -6.3958   54.9899 H       1  ZINC000470948647    0.1600
     54 H54       -11.1068   -2.0535   57.9159 H       1  ZINC000470948647    0.0700
     55 H55       -10.3176   -3.3287   58.8745 H       1  ZINC000470948647    0.0700
     56 H56       -12.0419   -3.4685   58.4557 H       1  ZINC000470948647    0.0600
     57 H57        -9.5834   -1.8036   60.6155 H       1  ZINC000470948647    0.1300
@<TRIPOS>BOND
     1     1     2    1
     2     1    31    1
     3     1    32    1
     4     1    33    1
     5     2    30   ar
     6     2     3   ar
     7     3     4   ar
     8     3    34    1
     9     4     5   ar
    10     4    35    1
    11     5     6    1
    12     5    28   ar
    13     6     7   am
    14     6    36    1
    15     7     8    2
    16     7     9    1
    17     9    10    1
    18     9    14    1
    19     9    11    1
    20    11    12    1
    21    11    37    1
    22    11    38    1
    23    12    13    1
    24    13    14    1
    25    13    39    1
    26    13    40    1
    27    14    15   am
    28    15    16    2
    29    15    17    1
    30    17    27    1
    31    17    18    2
    32    18    19    1
    33    19    20    1
    34    19    26    1
    35    20    25    1
    36    20    21    1
    37    20    41    1
    38    21    22    1
    39    21    42    1
    40    21    43    1
    41    22    23    1
    42    22    44    1
    43    22    45    1
    44    23    24    1
    45    23    46    1
    46    23    47    1
    47    24    25    1
    48    24    48    1
    49    24    49    1
    50    25    50    1
    51    25    51    1
    52    26    27    2
    53    26    52    1
    54    27    53    1
    55    28    29    1
    56    28    30   ar
    57    29    54    1
    58    29    55    1
    59    29    56    1
    60    30    57    1
@<TRIPOS>SUBSTRUCTURE
     1 ZINC000470948647        1 TEMP              0 ****  ****    0 ROOT


##########                                Name:    ZINC000265786263
##########                DOCK_Rotatable_Bonds:                   7
##########                         Heavy_Atoms:                  28
##########                    Molecular_Weight:             386.451
##########                DOCK_Rotatable_Bonds:                   7
##########                       Formal_Charge:           0.0499992
##########                     HBond_Acceptors:                   8
##########                        HBond_Donors:                   2
##########                         Heavy_Atoms:                  28
##########                          Grid_Score:          -34.462490
##########                     Grid_vdw_energy:          -33.590538
##########                      Grid_es_energy:           -0.871954
##########           Internal_energy_repulsive:           17.653860

@<TRIPOS>MOLECULE
ZINC000265786263
 54 57 1 0 0
SMALL
USER_CHARGES


@<TRIPOS>ATOM
      1 C1        -11.4917   -3.6669   53.3152 C.3     1  ZINC000265786263   -0.1500
      2 C2        -12.4614   -3.3985   54.4679 C.3     1  ZINC000265786263    0.1600
      3 C3        -13.5634   -2.4325   54.0282 C.3     1  ZINC000265786263   -0.1600
      4 C4        -14.9303   -3.0287   53.6860 C.3     1  ZINC000265786263   -0.1600
      5 C5        -14.7457   -2.2302   54.9779 C.3     1  ZINC000265786263   -0.1600
      6 N6        -13.0402   -4.6596   54.9625 N.am    1  ZINC000265786263   -0.7100
      7 C7        -12.6657   -4.7762   56.2494 C.2     1  ZINC000265786263    0.7100
      8 O8        -12.9759   -5.7112   56.9612 O.2     1  ZINC000265786263   -0.5400
      9 N9        -11.9138   -3.7478   56.6580 N.am    1  ZINC000265786263   -0.5600
     10 C10       -11.3671   -3.6143   58.0107 C.3     1  ZINC000265786263    0.1000
     11 C11       -12.3590   -2.8903   58.8841 C.2     1  ZINC000265786263    0.5100
     12 O12       -13.5075   -2.7590   58.5174 O.2     1  ZINC000265786263   -0.5300
     13 N13       -11.9697   -2.3886   60.0729 N.am    1  ZINC000265786263   -0.6100
     14 C14       -10.5799   -2.5298   60.5333 C.3     1  ZINC000265786263    0.1100
     15 C15       -10.0627   -1.1490   60.9507 C.3     1  ZINC000265786263    0.0400
     16 N16       -10.9849   -0.5600   61.9308 N.3     1  ZINC000265786263   -0.5300
     17 C17       -10.4387    0.6860   62.4848 C.3     1  ZINC000265786263    0.0900
     18 C18       -10.0614    0.4712   63.9279 C.ar    1  ZINC000265786263   -0.0600
     19 C19        -9.3777   -0.6711   64.3003 C.ar    1  ZINC000265786263   -0.1300
     20 C20        -9.0300   -0.8712   65.6238 C.ar    1  ZINC000265786263   -0.1000
     21 C21        -9.3652    0.0704   66.5770 C.ar    1  ZINC000265786263   -0.1400
     22 C22       -10.0515    1.2178   66.2057 C.ar    1  ZINC000265786263    0.1100
     23 O23       -10.3822    2.1459   67.1418 O.3     1  ZINC000265786263   -0.5000
     24 C24       -10.3942    1.4188   64.8768 C.ar    1  ZINC000265786263   -0.1200
     25 C25       -12.3138   -0.3379   61.3456 C.3     1  ZINC000265786263    0.0400
     26 C26       -12.9218   -1.6801   60.9416 C.3     1  ZINC000265786263    0.1200
     27 C27       -11.7206   -2.8503   55.6714 C.2     1  ZINC000265786263    0.5400
     28 O28       -11.0857   -1.8193   55.7333 O.2     1  ZINC000265786263   -0.4500
     29 H29       -10.7367   -4.3850   53.6353 H       1  ZINC000265786263    0.0700
     30 H30       -12.0409   -4.0715   52.4652 H       1  ZINC000265786263    0.0800
     31 H31       -11.0066   -2.7352   53.0242 H       1  ZINC000265786263    0.0900
     32 H32       -13.2301   -1.5715   53.4488 H       1  ZINC000265786263    0.1100
     33 H33       -15.4965   -2.5599   52.8811 H       1  ZINC000265786263    0.1000
     34 H34       -15.0445   -4.1091   53.7740 H       1  ZINC000265786263    0.1100
     35 H35       -14.7386   -2.7851   55.9160 H       1  ZINC000265786263    0.1000
     36 H36       -15.1906   -1.2360   55.0229 H       1  ZINC000265786263    0.1000
     37 H37       -13.5854   -5.2839   54.4588 H       1  ZINC000265786263    0.4400
     38 H38       -11.1739   -4.6044   58.4237 H       1  ZINC000265786263    0.1300
     39 H39       -10.4361   -3.0488   57.9721 H       1  ZINC000265786263    0.1300
     40 H40       -10.5438   -3.2075   61.3861 H       1  ZINC000265786263    0.0900
     41 H41        -9.9642   -2.9221   59.7239 H       1  ZINC000265786263    0.0900
     42 H42        -9.0737   -1.2509   61.3973 H       1  ZINC000265786263    0.0900
     43 H43       -10.0019   -0.5033   60.0747 H       1  ZINC000265786263    0.0400
     44 H44        -9.5550    0.9791   61.9179 H       1  ZINC000265786263    0.0900
     45 H45       -11.1900    1.4730   62.4190 H       1  ZINC000265786263    0.0500
     46 H46        -9.1149   -1.4087   63.5564 H       1  ZINC000265786263    0.1200
     47 H47        -8.4961   -1.7645   65.9122 H       1  ZINC000265786263    0.1300
     48 H48        -9.0937   -0.0865   67.6105 H       1  ZINC000265786263    0.1300
     49 H49       -10.8552    2.9111   66.7870 H       1  ZINC000265786263    0.3900
     50 H50       -10.9284    2.3111   64.5854 H       1  ZINC000265786263    0.1300
     51 H51       -12.9574    0.1485   62.0786 H       1  ZINC000265786263    0.1000
     52 H52       -12.2216    0.2965   60.4641 H       1  ZINC000265786263    0.0400
     53 H53       -13.8552   -1.5123   60.4042 H       1  ZINC000265786263    0.1000
     54 H54       -13.1114   -2.2791   61.8323 H       1  ZINC000265786263    0.0800
@<TRIPOS>BOND
     1     1     2    1
     2     1    29    1
     3     1    30    1
     4     1    31    1
     5     2    27    1
     6     2     3    1
     7     2     6    1
     8     3     5    1
     9     3     4    1
    10     3    32    1
    11     4     5    1
    12     4    33    1
    13     4    34    1
    14     5    35    1
    15     5    36    1
    16     6     7   am
    17     6    37    1
    18     7     8    2
    19     7     9   am
    20     9    10    1
    21     9    27   am
    22    10    11    1
    23    10    38    1
    24    10    39    1
    25    11    12    2
    26    11    13   am
    27    13    26    1
    28    13    14    1
    29    14    15    1
    30    14    40    1
    31    14    41    1
    32    15    16    1
    33    15    42    1
    34    15    43    1
    35    16    17    1
    36    16    25    1
    37    17    18    1
    38    17    44    1
    39    17    45    1
    40    18    24   ar
    41    18    19   ar
    42    19    20   ar
    43    19    46    1
    44    20    21   ar
    45    20    47    1
    46    21    22   ar
    47    21    48    1
    48    22    23    1
    49    22    24   ar
    50    23    49    1
    51    24    50    1
    52    25    26    1
    53    25    51    1
    54    25    52    1
    55    26    53    1
    56    26    54    1
    57    27    28    2
@<TRIPOS>SUBSTRUCTURE
     1 ZINC000265786263        1 TEMP              0 ****  ****    0 ROOT


##########                                Name:    ZINC000753658424
##########                DOCK_Rotatable_Bonds:                   8
##########                         Heavy_Atoms:                  24
##########                    Molecular_Weight:             332.399
##########                DOCK_Rotatable_Bonds:                   8
##########                       Formal_Charge:        -9.16421e-07
##########                     HBond_Acceptors:                   6
##########                        HBond_Donors:                   3
##########                         Heavy_Atoms:                  24
##########                          Grid_Score:          -34.439465
##########                     Grid_vdw_energy:          -32.661316
##########                      Grid_es_energy:           -1.778148
##########           Internal_energy_repulsive:           18.456984

@<TRIPOS>MOLECULE
ZINC000753658424
 48 49 1 0 0
SMALL
USER_CHARGES


@<TRIPOS>ATOM
      1 C1        -14.9297   -1.5751   53.7390 C.3     1  ZINC000753658424   -0.2000
      2 C2        -14.3062   -2.9304   53.5257 C.2     1  ZINC000753658424    0.4400
      3 O3        -14.8189   -3.7204   52.7609 O.2     1  ZINC000753658424   -0.4500
      4 C4        -13.0800   -3.2943   54.2424 C.2     1  ZINC000753658424   -0.2500
      5 C5        -11.8046   -3.3772   53.7056 C.2     1  ZINC000753658424    0.1000
      6 C6        -11.4323   -3.1068   52.2706 C.3     1  ZINC000753658424   -0.1000
      7 N7        -10.9587   -3.7387   54.6814 N.pl3   1  ZINC000753658424   -0.5300
      8 C8        -11.6600   -3.8958   55.8575 C.2     1  ZINC000753658424   -0.0600
      9 C9        -11.0887   -4.2862   57.1528 C.2     1  ZINC000753658424    0.5900
     10 O10       -11.0633   -5.4583   57.4780 O.2     1  ZINC000753658424   -0.5200
     11 N11       -10.5925   -3.3461   57.9813 N.am    1  ZINC000753658424   -0.7300
     12 C12       -10.0240   -3.7354   59.2742 C.3     1  ZINC000753658424    0.0900
     13 C13        -9.8774   -2.4970   60.1605 C.3     1  ZINC000753658424    0.1900
     14 H14        -9.4415   -1.6840   59.5799 H       1  ZINC000753658424    0.1300
     15 O15        -9.0262   -2.8015   61.2673 O.3     1  ZINC000753658424   -0.5500
     16 C16       -11.2332   -2.0800   60.6694 C.2     1  ZINC000753658424   -0.0600
     17 C17       -11.6005   -0.8273   60.9935 C.2     1  ZINC000753658424   -0.1800
     18 C18       -12.9468   -0.8927   61.4205 C.2     1  ZINC000753658424   -0.2100
     19 C19       -13.3215   -2.1816   61.3317 C.2     1  ZINC000753658424    0.0000
     20 C20       -14.6803   -2.7305   61.6829 C.3     1  ZINC000753658424   -0.0800
     21 O21       -12.2814   -2.8952   60.8707 O.3     1  ZINC000753658424   -0.1700
     22 C22       -12.9724   -3.6216   55.6155 C.2     1  ZINC000753658424   -0.0100
     23 C23       -14.0975   -3.6674   56.6171 C.3     1  ZINC000753658424   -0.0500
     24 C24       -14.1374   -5.0475   57.2765 C.3     1  ZINC000753658424   -0.1500
     25 C25       -13.8719   -2.5972   57.6869 C.3     1  ZINC000753658424   -0.1500
     26 H26       -15.7808   -1.4571   53.0683 H       1  ZINC000753658424    0.0800
     27 H27       -15.2665   -1.4886   54.7720 H       1  ZINC000753658424    0.1000
     28 H28       -14.1928   -0.7994   53.5309 H       1  ZINC000753658424    0.0900
     29 H29       -11.0991   -2.0739   52.1701 H       1  ZINC000753658424    0.0900
     30 H30       -10.6280   -3.7788   51.9712 H       1  ZINC000753658424    0.0800
     31 H31       -12.3004   -3.2723   51.6326 H       1  ZINC000753658424    0.0900
     32 H32       -10.0032   -3.8690   54.5760 H       1  ZINC000753658424    0.4200
     33 H33       -10.6116   -2.4117   57.7215 H       1  ZINC000753658424    0.4000
     34 H34       -10.6845   -4.4536   59.7599 H       1  ZINC000753658424    0.0900
     35 H35        -9.0452   -4.1891   59.1190 H       1  ZINC000753658424    0.0800
     36 H36        -8.1243   -3.0428   61.0152 H       1  ZINC000753658424    0.3900
     37 H37       -10.9851    0.0585   60.9387 H       1  ZINC000753658424    0.1500
     38 H38       -13.5571   -0.0665   61.7541 H       1  ZINC000753658424    0.1500
     39 H39       -15.3213   -2.7052   60.8016 H       1  ZINC000753658424    0.0800
     40 H40       -14.5785   -3.7592   62.0286 H       1  ZINC000753658424    0.0800
     41 H41       -15.1241   -2.1241   62.4725 H       1  ZINC000753658424    0.0900
     42 H42       -15.0436   -3.4800   56.1094 H       1  ZINC000753658424    0.1100
     43 H43       -13.2422   -5.1864   57.8828 H       1  ZINC000753658424    0.0500
     44 H44       -15.0208   -5.1217   57.9106 H       1  ZINC000753658424    0.0600
     45 H45       -14.1775   -5.8174   56.5059 H       1  ZINC000753658424    0.0600
     46 H46       -13.9227   -1.6094   57.2290 H       1  ZINC000753658424    0.0500
     47 H47       -14.6417   -2.6822   58.4539 H       1  ZINC000753658424    0.0600
     48 H48       -12.8905   -2.7376   58.1400 H       1  ZINC000753658424    0.0600
@<TRIPOS>BOND
     1     1     2    1
     2     1    26    1
     3     1    27    1
     4     1    28    1
     5     2     3    2
     6     2     4    1
     7     4    22    1
     8     4     5    2
     9     5     6    1
    10     5     7    1
    11     6    29    1
    12     6    30    1
    13     6    31    1
    14     7     8    1
    15     7    32    1
    16     8     9    1
    17     8    22    2
    18     9    10    2
    19     9    11   am
    20    11    12    1
    21    11    33    1
    22    12    13    1
    23    12    34    1
    24    12    35    1
    25    13    14    1
    26    13    15    1
    27    13    16    1
    28    15    36    1
    29    16    21    1
    30    16    17    2
    31    17    18    1
    32    17    37    1
    33    18    19    2
    34    18    38    1
    35    19    20    1
    36    19    21    1
    37    20    39    1
    38    20    40    1
    39    20    41    1
    40    22    23    1
    41    23    24    1
    42    23    25    1
    43    23    42    1
    44    24    43    1
    45    24    44    1
    46    24    45    1
    47    25    46    1
    48    25    47    1
    49    25    48    1
@<TRIPOS>SUBSTRUCTURE
     1 ZINC000753658424        1 TEMP              0 ****  ****    0 ROOT


##########                                Name:    ZINC000498646479
##########                DOCK_Rotatable_Bonds:                   7
##########                         Heavy_Atoms:                  29
##########                    Molecular_Weight:              407.58
##########                DOCK_Rotatable_Bonds:                   7
##########                       Formal_Charge:          -0.0199997
##########                     HBond_Acceptors:                   5
##########                        HBond_Donors:                   0
##########                         Heavy_Atoms:                  29
##########                          Grid_Score:          -34.424026
##########                     Grid_vdw_energy:          -33.196304
##########                      Grid_es_energy:           -1.227722
##########           Internal_energy_repulsive:           28.404737

@<TRIPOS>MOLECULE
ZINC000498646479
 58 61 1 0 0
SMALL
USER_CHARGES


@<TRIPOS>ATOM
      1 C1         -3.3650    1.8022   49.6604 C.3     1  ZINC000498646479   -0.1500
      2 C2         -4.7393    1.2654   50.0656 C.3     1  ZINC000498646479   -0.0600
      3 C3         -5.2265    2.0027   51.2863 C.2     1  ZINC000498646479   -0.1700
      4 C4         -4.4520    2.4406   52.2801 C.2     1  ZINC000498646479   -0.1400
      5 C5         -5.1242    3.0935   53.2990 C.2     1  ZINC000498646479   -0.1300
      6 C6         -6.4445    3.1857   53.1325 C.2     1  ZINC000498646479   -0.1900
      7 C7         -7.3972    3.8473   54.0946 C.3     1  ZINC000498646479    0.1300
      8 N8         -7.8499    2.8652   55.0888 N.3     1  ZINC000498646479   -0.5300
      9 C9         -8.7135    1.8502   54.4708 C.3     1  ZINC000498646479    0.0400
     10 C10        -9.0151    0.7496   55.4935 C.3     1  ZINC000498646479    0.1200
     11 N11        -9.5618    1.3762   56.7067 N.am    1  ZINC000498646479   -0.6100
     12 C12       -10.7123    0.9365   57.2540 C.2     1  ZINC000498646479    0.5200
     13 O13       -11.3112    0.0123   56.7459 O.2     1  ZINC000498646479   -0.5400
     14 C14       -11.2545    1.5932   58.4973 C.3     1  ZINC000498646479   -0.1000
     15 H15       -10.4273    1.8862   59.1437 H       1  ZINC000498646479    0.0900
     16 C16       -12.0619    2.8333   58.1084 C.3     1  ZINC000498646479   -0.1500
     17 C17       -12.1589    0.6084   59.2411 C.3     1  ZINC000498646479   -0.0600
     18 C18       -11.3153   -0.4656   59.8782 C.ar    1  ZINC000498646479   -0.1200
     19 C19       -10.7074   -0.2530   61.1287 C.ar    1  ZINC000498646479   -0.0200
     20 C20       -10.8526    0.9491   61.8361 C.ar    1  ZINC000498646479   -0.1200
     21 C21       -10.2391    1.0947   63.0435 C.ar    1  ZINC000498646479   -0.1000
     22 C22        -9.4689    0.0677   63.5864 C.ar    1  ZINC000498646479   -0.1200
     23 C23        -9.3061   -1.1129   62.9275 C.ar    1  ZINC000498646479   -0.0900
     24 C24        -9.9237   -1.2998   61.6807 C.ar    1  ZINC000498646479   -0.1100
     25 C25        -9.7925   -2.4947   60.9554 C.ar    1  ZINC000498646479    0.1400
     26 N26       -10.3893   -2.6232   59.7934 N.ar    1  ZINC000498646479   -0.4800
     27 C27       -11.1308   -1.6638   59.2574 C.ar    1  ZINC000498646479    0.0800
     28 C28        -8.8196    2.4952   57.3069 C.3     1  ZINC000498646479    0.1100
     29 C29        -8.5256    3.5269   56.2128 C.3     1  ZINC000498646479    0.0400
     30 S30        -6.9022    2.4241   51.6146 S.3     1  ZINC000498646479    0.1300
     31 H31        -3.0125    1.2690   48.7774 H       1  ZINC000498646479    0.0600
     32 H32        -3.4424    2.8661   49.4355 H       1  ZINC000498646479    0.0600
     33 H33        -2.6611    1.6542   50.4793 H       1  ZINC000498646479    0.0600
     34 H34        -5.4431    1.4135   49.2467 H       1  ZINC000498646479    0.0800
     35 H35        -4.6618    0.2017   50.2904 H       1  ZINC000498646479    0.0700
     36 H36        -3.3818    2.2964   52.2894 H       1  ZINC000498646479    0.1400
     37 H37        -4.6181    3.4972   54.1635 H       1  ZINC000498646479    0.1300
     38 H38        -6.8905    4.6692   54.6004 H       1  ZINC000498646479    0.0900
     39 H39        -8.2573    4.2328   53.5470 H       1  ZINC000498646479    0.0500
     40 H40        -9.6462    2.3132   54.1492 H       1  ZINC000498646479    0.0400
     41 H41        -8.2060    1.4167   53.6091 H       1  ZINC000498646479    0.1000
     42 H42        -9.7456    0.0549   55.0791 H       1  ZINC000498646479    0.1000
     43 H43        -8.0967    0.2162   55.7391 H       1  ZINC000498646479    0.0800
     44 H44       -12.3833    3.3550   59.0098 H       1  ZINC000498646479    0.0700
     45 H45       -11.4411    3.4968   57.5063 H       1  ZINC000498646479    0.0600
     46 H46       -12.9363    2.5315   57.5319 H       1  ZINC000498646479    0.0700
     47 H47       -12.7159    1.1388   60.0135 H       1  ZINC000498646479    0.0900
     48 H48       -12.8563    0.1533   58.5379 H       1  ZINC000498646479    0.0800
     49 H49       -11.4460    1.7534   61.4267 H       1  ZINC000498646479    0.1400
     50 H50       -10.3508    2.0203   63.5885 H       1  ZINC000498646479    0.1300
     51 H51        -8.9931    0.2106   64.5453 H       1  ZINC000498646479    0.1300
     52 H52        -8.7064   -1.8995   63.3608 H       1  ZINC000498646479    0.1300
     53 H53        -9.2013   -3.3066   61.3527 H       1  ZINC000498646479    0.1600
     54 H54       -11.5950   -1.8341   58.2971 H       1  ZINC000498646479    0.1500
     55 H55        -9.4209    2.9545   58.0914 H       1  ZINC000498646479    0.0900
     56 H56        -7.8825    2.1296   57.7267 H       1  ZINC000498646479    0.0800
     57 H57        -7.8819    4.3096   56.6144 H       1  ZINC000498646479    0.0900
     58 H58        -9.4611    3.9667   55.8669 H       1  ZINC000498646479    0.0400
@<TRIPOS>BOND
     1     1     2    1
     2     1    31    1
     3     1    32    1
     4     1    33    1
     5     2     3    1
     6     2    34    1
     7     2    35    1
     8     3    30    1
     9     3     4    2
    10     4     5    1
    11     4    36    1
    12     5     6    2
    13     5    37    1
    14     6     7    1
    15     6    30    1
    16     7     8    1
    17     7    38    1
    18     7    39    1
    19     8    29    1
    20     8     9    1
    21     9    10    1
    22     9    40    1
    23     9    41    1
    24    10    11    1
    25    10    42    1
    26    10    43    1
    27    11    12   am
    28    11    28    1
    29    12    13    2
    30    12    14    1
    31    14    15    1
    32    14    16    1
    33    14    17    1
    34    16    44    1
    35    16    45    1
    36    16    46    1
    37    17    18    1
    38    17    47    1
    39    17    48    1
    40    18    27   ar
    41    18    19   ar
    42    19    24   ar
    43    19    20   ar
    44    20    21   ar
    45    20    49    1
    46    21    22   ar
    47    21    50    1
    48    22    23   ar
    49    22    51    1
    50    23    24   ar
    51    23    52    1
    52    24    25   ar
    53    25    26   ar
    54    25    53    1
    55    26    27   ar
    56    27    54    1
    57    28    29    1
    58    28    55    1
    59    28    56    1
    60    29    57    1
    61    29    58    1
@<TRIPOS>SUBSTRUCTURE
     1 ZINC000498646479        1 TEMP              0 ****  ****    0 ROOT


##########                                Name:    ZINC000263872566
##########                DOCK_Rotatable_Bonds:                   9
##########                         Heavy_Atoms:                  26
##########                    Molecular_Weight:             362.469
##########                DOCK_Rotatable_Bonds:                   9
##########                       Formal_Charge:           0.0300001
##########                     HBond_Acceptors:                   6
##########                        HBond_Donors:                   2
##########                         Heavy_Atoms:                  26
##########                          Grid_Score:          -34.417637
##########                     Grid_vdw_energy:          -33.550014
##########                      Grid_es_energy:           -0.867623
##########           Internal_energy_repulsive:           21.397297

@<TRIPOS>MOLECULE
ZINC000263872566
 56 57 1 0 0
SMALL
USER_CHARGES


@<TRIPOS>ATOM
      1 C1        -15.0757   -2.0474   49.8405 C.3     1  ZINC000263872566   -0.1800
      2 C2        -13.8692   -1.4465   50.5645 C.3     1  ZINC000263872566    0.1400
      3 H3        -12.9815   -1.5521   49.9408 H       1  ZINC000263872566    0.0700
      4 O4        -14.1090   -0.0613   50.8209 O.3     1  ZINC000263872566   -0.5600
      5 C5        -13.6552   -2.1692   51.8695 C.ar    1  ZINC000263872566   -0.0800
      6 C6        -14.7149   -2.3583   52.7367 C.ar    1  ZINC000263872566   -0.0900
      7 C7        -14.5187   -3.0211   53.9338 C.ar    1  ZINC000263872566   -0.1000
      8 C8        -13.2627   -3.4954   54.2633 C.ar    1  ZINC000263872566   -0.1100
      9 C9        -13.0486   -4.2178   55.5685 C.3     1  ZINC000263872566    0.1800
     10 N10       -12.2492   -3.3793   56.4652 N.am    1  ZINC000263872566   -0.7400
     11 C11       -11.4335   -3.9509   57.3733 C.2     1  ZINC000263872566    0.7100
     12 O12       -11.3612   -5.1623   57.4482 O.2     1  ZINC000263872566   -0.5900
     13 N13       -10.6980   -3.1796   58.1983 N.am    1  ZINC000263872566   -0.6300
     14 C14       -10.7791   -1.7144   58.1238 C.3     1  ZINC000263872566    0.1100
     15 C15       -11.0999   -1.1669   59.5180 C.3     1  ZINC000263872566   -0.1200
     16 C16       -10.0652   -1.6891   60.5173 C.3     1  ZINC000263872566   -0.0800
     17 C17       -10.3577   -1.1251   61.8838 C.2     1  ZINC000263872566    0.4700
     18 O18        -9.4972   -1.1197   62.7321 O.2     1  ZINC000263872566   -0.5000
     19 O19       -11.5742   -0.6287   62.1587 O.3     1  ZINC000263872566   -0.3500
     20 C20       -11.6369    0.7499   62.6105 C.3     1  ZINC000263872566    0.1200
     21 C21       -13.0108    1.3342   62.2759 C.3     1  ZINC000263872566   -0.1800
     22 C22       -11.4155    0.8012   64.1235 C.3     1  ZINC000263872566   -0.1400
     23 C23       -10.5505    1.5667   61.9082 C.3     1  ZINC000263872566   -0.1800
     24 C24       -10.1316   -3.2171   60.5715 C.3     1  ZINC000263872566   -0.1300
     25 C25        -9.8043   -3.7880   59.1933 C.3     1  ZINC000263872566    0.1300
     26 C26       -12.2033   -3.3077   53.3954 C.ar    1  ZINC000263872566   -0.1000
     27 C27       -12.4004   -2.6480   52.1967 C.ar    1  ZINC000263872566   -0.1100
     28 H28       -15.9633   -1.9417   50.4643 H       1  ZINC000263872566    0.0700
     29 H29       -15.2304   -1.5247   48.8966 H       1  ZINC000263872566    0.0600
     30 H30       -14.8928   -3.1040   49.6450 H       1  ZINC000263872566    0.0700
     31 H31       -14.2548    0.4668   50.0240 H       1  ZINC000263872566    0.3800
     32 H32       -15.6961   -1.9877   52.4793 H       1  ZINC000263872566    0.1300
     33 H33       -15.3464   -3.1682   54.6117 H       1  ZINC000263872566    0.1300
     34 H34       -14.0135   -4.4269   56.0305 H       1  ZINC000263872566    0.0800
     35 H35       -12.5237   -5.1549   55.3832 H       1  ZINC000263872566    0.0800
     36 H36       -12.3068   -2.4129   56.4055 H       1  ZINC000263872566    0.4000
     37 H37        -9.8246   -1.3125   57.7840 H       1  ZINC000263872566    0.0800
     38 H38       -11.5675   -1.4271   57.4279 H       1  ZINC000263872566    0.0800
     39 H39       -11.0682   -0.0775   59.4972 H       1  ZINC000263872566    0.0900
     40 H40       -12.0945   -1.4966   59.8184 H       1  ZINC000263872566    0.0800
     41 H41        -9.0684   -1.3800   60.2027 H       1  ZINC000263872566    0.1100
     42 H42       -13.7847    0.7522   62.7764 H       1  ZINC000263872566    0.0600
     43 H43       -13.0578    2.3690   62.6151 H       1  ZINC000263872566    0.0700
     44 H44       -13.1684    1.2976   61.1980 H       1  ZINC000263872566    0.0800
     45 H45       -10.4368    0.3850   64.3619 H       1  ZINC000263872566    0.0700
     46 H46       -11.4627    1.8361   64.4627 H       1  ZINC000263872566    0.0800
     47 H47       -12.1896    0.2193   64.6239 H       1  ZINC000263872566    0.0700
     48 H48       -10.7082    1.5302   60.8302 H       1  ZINC000263872566    0.0800
     49 H49       -10.5975    2.6015   62.2472 H       1  ZINC000263872566    0.0700
     50 H50        -9.5717    1.1505   62.1464 H       1  ZINC000263872566    0.0600
     51 H51        -9.4106   -3.5869   61.3004 H       1  ZINC000263872566    0.0900
     52 H52       -11.1352   -3.5275   60.8619 H       1  ZINC000263872566    0.0700
     53 H53        -9.9470   -4.8685   59.2021 H       1  ZINC000263872566    0.1000
     54 H54        -8.7705   -3.5557   58.9376 H       1  ZINC000263872566    0.0700
     55 H55       -11.2221   -3.6785   53.6527 H       1  ZINC000263872566    0.1300
     56 H56       -11.5727   -2.5013   51.5187 H       1  ZINC000263872566    0.1300
@<TRIPOS>BOND
     1     1     2    1
     2     1    28    1
     3     1    29    1
     4     1    30    1
     5     2     3    1
     6     2     4    1
     7     2     5    1
     8     4    31    1
     9     5    27   ar
    10     5     6   ar
    11     6     7   ar
    12     6    32    1
    13     7     8   ar
    14     7    33    1
    15     8     9    1
    16     8    26   ar
    17     9    10    1
    18     9    34    1
    19     9    35    1
    20    10    11   am
    21    10    36    1
    22    11    12    2
    23    11    13   am
    24    13    25    1
    25    13    14    1
    26    14    15    1
    27    14    37    1
    28    14    38    1
    29    15    16    1
    30    15    39    1
    31    15    40    1
    32    16    17    1
    33    16    24    1
    34    16    41    1
    35    17    18    2
    36    17    19    1
    37    19    20    1
    38    20    21    1
    39    20    22    1
    40    20    23    1
    41    21    42    1
    42    21    43    1
    43    21    44    1
    44    22    45    1
    45    22    46    1
    46    22    47    1
    47    23    48    1
    48    23    49    1
    49    23    50    1
    50    24    25    1
    51    24    51    1
    52    24    52    1
    53    25    53    1
    54    25    54    1
    55    26    27   ar
    56    26    55    1
    57    27    56    1
@<TRIPOS>SUBSTRUCTURE
     1 ZINC000263872566        1 TEMP              0 ****  ****    0 ROOT


##########                                Name:    ZINC000534799364
##########                DOCK_Rotatable_Bonds:                   4
##########                         Heavy_Atoms:                  29
##########                    Molecular_Weight:             391.491
##########                DOCK_Rotatable_Bonds:                   4
##########                       Formal_Charge:           0.0199998
##########                     HBond_Acceptors:                   6
##########                        HBond_Donors:                   0
##########                         Heavy_Atoms:                  29
##########                          Grid_Score:          -34.394363
##########                     Grid_vdw_energy:          -34.134453
##########                      Grid_es_energy:           -0.259912
##########           Internal_energy_repulsive:           19.391335

@<TRIPOS>MOLECULE
ZINC000534799364
 55 59 1 0 0
SMALL
USER_CHARGES


@<TRIPOS>ATOM
      1 C1         -9.1095    3.0815   52.8076 C.3     1  ZINC000534799364   -0.1100
      2 C2         -8.4954    1.8442   52.2051 C.ar    1  ZINC000534799364   -0.0200
      3 C3         -7.4879    1.9404   51.2597 C.ar    1  ZINC000534799364   -0.1700
      4 C4         -6.9477    0.7838   50.7283 C.ar    1  ZINC000534799364    0.1000
      5 N5         -7.3785   -0.4027   51.1093 N.ar    1  ZINC000534799364   -0.4800
      6 C6         -8.3350   -0.5394   52.0059 C.ar    1  ZINC000534799364    0.0800
      7 C7         -8.9231    0.5753   52.5896 C.ar    1  ZINC000534799364    0.0300
      8 N8         -9.9363    0.4265   53.5399 N.3     1  ZINC000534799364   -0.5000
      9 C9         -9.4121    0.6059   54.9011 C.3     1  ZINC000534799364    0.0600
     10 C10       -10.5640    0.5144   55.9046 C.3     1  ZINC000534799364    0.0600
     11 N11       -11.2281   -0.7893   55.7667 N.3     1  ZINC000534799364   -0.5300
     12 C12       -12.2935   -0.9457   56.7660 C.3     1  ZINC000534799364    0.1400
     13 C13       -11.6801   -1.1071   58.1330 C.2     1  ZINC000534799364    0.1100
     14 N14       -11.5957   -0.1777   59.0495 N.2     1  ZINC000534799364   -0.2800
     15 N15       -10.9622   -0.7253   60.1714 N.pl3   1  ZINC000534799364   -0.3100
     16 C16       -10.6807   -0.0539   61.3701 C.ar    1  ZINC000534799364    0.1500
     17 C17       -10.8290    1.3244   61.4461 C.ar    1  ZINC000534799364   -0.1000
     18 C18       -10.5514    1.9838   62.6273 C.ar    1  ZINC000534799364   -0.1300
     19 C19       -10.1251    1.2711   63.7355 C.ar    1  ZINC000534799364    0.1000
     20 F20        -9.8543    1.9178   64.8903 F       1  ZINC000534799364   -0.1300
     21 C21        -9.9765   -0.1038   63.6616 C.ar    1  ZINC000534799364   -0.1300
     22 C22       -10.2588   -0.7674   62.4837 C.ar    1  ZINC000534799364   -0.0800
     23 C23       -10.6691   -2.0187   59.8943 C.2     1  ZINC000534799364    0.0500
     24 C24       -11.1075   -2.2809   58.6430 C.2     1  ZINC000534799364   -0.2200
     25 C25       -10.8080   -3.7179   58.2737 C.3     1  ZINC000534799364   -0.0400
     26 C26        -9.7465   -4.1807   59.2953 C.3     1  ZINC000534799364   -0.1200
     27 C27       -10.0327   -3.2522   60.4970 C.3     1  ZINC000534799364   -0.0500
     28 C28       -11.7523   -0.9687   54.4056 C.3     1  ZINC000534799364    0.0600
     29 C29       -10.6004   -0.8772   53.4020 C.3     1  ZINC000534799364    0.0600
     30 H30        -8.6093    3.3145   53.7477 H       1  ZINC000534799364    0.0800
     31 H31        -8.9940    3.9174   52.1177 H       1  ZINC000534799364    0.0600
     32 H32       -10.1694    2.9075   52.9934 H       1  ZINC000534799364    0.0800
     33 H33        -7.1287    2.9077   50.9409 H       1  ZINC000534799364    0.1400
     34 H34        -6.1621    0.8533   49.9904 H       1  ZINC000534799364    0.1600
     35 H35        -8.6617   -1.5280   52.2927 H       1  ZINC000534799364    0.1500
     36 H36        -8.6808   -0.1737   55.1149 H       1  ZINC000534799364    0.0500
     37 H37        -8.9363    1.5832   54.9816 H       1  ZINC000534799364    0.0800
     38 H38       -10.1735    0.6183   56.9170 H       1  ZINC000534799364    0.0900
     39 H39       -11.2818    1.3108   55.7080 H       1  ZINC000534799364    0.0500
     40 H40       -12.9329   -0.0631   56.7565 H       1  ZINC000534799364    0.1000
     41 H41       -12.8880   -1.8277   56.5281 H       1  ZINC000534799364    0.0500
     42 H42       -11.1611    1.8805   60.5818 H       1  ZINC000534799364    0.1400
     43 H43       -10.6663    3.0560   62.6866 H       1  ZINC000534799364    0.1500
     44 H44        -9.6436   -0.6579   64.5268 H       1  ZINC000534799364    0.1500
     45 H45       -10.1431   -1.8396   62.4265 H       1  ZINC000534799364    0.1400
     46 H46       -11.7080   -4.3267   58.3605 H       1  ZINC000534799364    0.0800
     47 H47       -10.4087   -3.7733   57.2610 H       1  ZINC000534799364    0.0700
     48 H48        -9.8974   -5.2252   59.5676 H       1  ZINC000534799364    0.0800
     49 H49        -8.7395   -4.0220   58.9093 H       1  ZINC000534799364    0.0800
     50 H50        -9.1034   -2.9880   61.0015 H       1  ZINC000534799364    0.0800
     51 H51       -10.7188   -3.7344   61.1934 H       1  ZINC000534799364    0.0900
     52 H52       -12.2281   -1.9460   54.3250 H       1  ZINC000534799364    0.0900
     53 H53       -12.4835   -0.1891   54.1919 H       1  ZINC000534799364    0.0500
     54 H54       -10.9909   -0.9811   52.3897 H       1  ZINC000534799364    0.0800
     55 H55        -9.8826   -1.6735   53.5988 H       1  ZINC000534799364    0.0500
@<TRIPOS>BOND
     1     1     2    1
     2     1    30    1
     3     1    31    1
     4     1    32    1
     5     2     7   ar
     6     2     3   ar
     7     3     4   ar
     8     3    33    1
     9     4     5   ar
    10     4    34    1
    11     5     6   ar
    12     6     7   ar
    13     6    35    1
    14     7     8    1
    15     8    29    1
    16     8     9    1
    17     9    10    1
    18     9    36    1
    19     9    37    1
    20    10    11    1
    21    10    38    1
    22    10    39    1
    23    11    12    1
    24    11    28    1
    25    12    13    1
    26    12    40    1
    27    12    41    1
    28    13    24    1
    29    13    14    2
    30    14    15    1
    31    15    16    1
    32    15    23    1
    33    16    22   ar
    34    16    17   ar
    35    17    18   ar
    36    17    42    1
    37    18    19   ar
    38    18    43    1
    39    19    20    1
    40    19    21   ar
    41    21    22   ar
    42    21    44    1
    43    22    45    1
    44    23    27    1
    45    23    24    2
    46    24    25    1
    47    25    26    1
    48    25    46    1
    49    25    47    1
    50    26    27    1
    51    26    48    1
    52    26    49    1
    53    27    50    1
    54    27    51    1
    55    28    29    1
    56    28    52    1
    57    28    53    1
    58    29    54    1
    59    29    55    1
@<TRIPOS>SUBSTRUCTURE
     1 ZINC000534799364        1 TEMP              0 ****  ****    0 ROOT


##########                                Name:    ZINC000800038938
##########                DOCK_Rotatable_Bonds:                   6
##########                         Heavy_Atoms:                  25
##########                    Molecular_Weight:             386.274
##########                DOCK_Rotatable_Bonds:                   6
##########                       Formal_Charge:           0.0200003
##########                     HBond_Acceptors:                   7
##########                        HBond_Donors:                   0
##########                         Heavy_Atoms:                  25
##########                          Grid_Score:          -34.373734
##########                     Grid_vdw_energy:          -33.300480
##########                      Grid_es_energy:           -1.073255
##########           Internal_energy_repulsive:            9.850036

@<TRIPOS>MOLECULE
ZINC000800038938
 46 48 1 0 0
SMALL
USER_CHARGES


@<TRIPOS>ATOM
      1 C1        -16.1739   -1.8284   65.5871 C.3     1  ZINC000800038938    0.0300
      2 O2        -16.8431   -1.5461   64.3564 O.3     1  ZINC000800038938   -0.3800
      3 C3        -16.1404   -0.6354   63.5083 C.3     1  ZINC000800038938    0.0900
      4 H4        -15.8281    0.2397   64.0783 H       1  ZINC000800038938    0.0700
      5 C5        -17.0417   -0.2060   62.3323 C.3     1  ZINC000800038938   -0.1400
      6 C6        -16.0726   -0.1052   61.1283 C.3     1  ZINC000800038938   -0.1400
      7 C7        -15.1120   -1.2976   61.3619 C.3     1  ZINC000800038938    0.0900
      8 H8        -15.5659   -2.2265   61.0167 H       1  ZINC000800038938    0.0900
      9 O9        -13.8465   -1.0704   60.6872 O.3     1  ZINC000800038938   -0.3500
     10 C10       -13.2592   -2.1353   60.1187 C.2     1  ZINC000800038938    0.4500
     11 O11       -13.8064   -3.2122   60.1443 O.2     1  ZINC000800038938   -0.4800
     12 C12       -11.9175   -1.9875   59.4488 C.3     1  ZINC000800038938    0.1500
     13 H13       -11.6896   -0.9314   59.3047 H       1  ZINC000800038938    0.1200
     14 C14       -10.8232   -2.6472   60.3144 C.3     1  ZINC000800038938   -0.1200
     15 C15        -9.8934   -3.3023   59.2590 C.3     1  ZINC000800038938   -0.1300
     16 C16       -10.9127   -3.7517   58.1826 C.3     1  ZINC000800038938    0.0900
     17 N17       -11.9278   -2.6785   58.1512 N.am    1  ZINC000800038938   -0.6000
     18 C18       -12.7297   -2.3860   57.1081 C.2     1  ZINC000800038938    0.5800
     19 O19       -13.5322   -1.4771   57.1946 O.2     1  ZINC000800038938   -0.4900
     20 C20       -12.6333   -3.1705   55.8594 C.ar    1  ZINC000800038938   -0.1100
     21 C21       -11.8097   -2.7354   54.8200 C.ar    1  ZINC000800038938   -0.0700
     22 C22       -11.7243   -3.4730   53.6562 C.ar    1  ZINC000800038938   -0.0400
     23 Cl23      -10.7001   -2.9339   52.3623 Cl      1  ZINC000800038938   -0.0500
     24 C24       -12.4536   -4.6423   53.5185 C.ar    1  ZINC000800038938   -0.0700
     25 C25       -13.2719   -5.0791   54.5442 C.ar    1  ZINC000800038938   -0.1000
     26 C26       -13.3620   -4.3542   55.7163 C.ar    1  ZINC000800038938    0.0100
     27 Cl27      -14.3898   -4.9041   57.0027 Cl      1  ZINC000800038938   -0.0300
     28 C28       -14.9128   -1.3290   62.8924 C.3     1  ZINC000800038938   -0.1200
     29 H29       -16.7712   -2.5267   66.1735 H       1  ZINC000800038938    0.0900
     30 H30       -15.1997   -2.2701   65.3780 H       1  ZINC000800038938    0.0400
     31 H31       -16.0406   -0.9036   66.1486 H       1  ZINC000800038938    0.0400
     32 H32       -17.8073   -0.9587   62.1439 H       1  ZINC000800038938    0.0800
     33 H33       -17.4991    0.7622   62.5359 H       1  ZINC000800038938    0.0800
     34 H34       -16.6114   -0.2218   60.1879 H       1  ZINC000800038938    0.0800
     35 H35       -15.5284    0.8389   61.1484 H       1  ZINC000800038938    0.0800
     36 H36       -10.2831   -1.8965   60.8913 H       1  ZINC000800038938    0.1000
     37 H37       -11.2542   -3.4030   60.9708 H       1  ZINC000800038938    0.0900
     38 H38        -9.1906   -2.5750   58.8523 H       1  ZINC000800038938    0.0900
     39 H39        -9.3669   -4.1587   59.6801 H       1  ZINC000800038938    0.1000
     40 H40       -10.4252   -3.8394   57.2117 H       1  ZINC000800038938    0.0900
     41 H41       -11.3701   -4.6998   58.4655 H       1  ZINC000800038938    0.0800
     42 H42       -11.2407   -1.8236   54.9257 H       1  ZINC000800038938    0.1500
     43 H43       -12.3831   -5.2155   52.6059 H       1  ZINC000800038938    0.1500
     44 H44       -13.8383   -5.9917   54.4302 H       1  ZINC000800038938    0.1500
     45 H45       -14.0042   -0.7907   63.1618 H       1  ZINC000800038938    0.0900
     46 H46       -14.8532   -2.3604   63.2400 H       1  ZINC000800038938    0.0900
@<TRIPOS>BOND
     1     1     2    1
     2     1    29    1
     3     1    30    1
     4     1    31    1
     5     2     3    1
     6     3     4    1
     7     3    28    1
     8     3     5    1
     9     5     6    1
    10     5    32    1
    11     5    33    1
    12     6     7    1
    13     6    34    1
    14     6    35    1
    15     7     8    1
    16     7     9    1
    17     7    28    1
    18     9    10    1
    19    10    11    2
    20    10    12    1
    21    12    13    1
    22    12    17    1
    23    12    14    1
    24    14    15    1
    25    14    36    1
    26    14    37    1
    27    15    16    1
    28    15    38    1
    29    15    39    1
    30    16    17    1
    31    16    40    1
    32    16    41    1
    33    17    18   am
    34    18    19    2
    35    18    20    1
    36    20    26   ar
    37    20    21   ar
    38    21    22   ar
    39    21    42    1
    40    22    23    1
    41    22    24   ar
    42    24    25   ar
    43    24    43    1
    44    25    26   ar
    45    25    44    1
    46    26    27    1
    47    28    45    1
    48    28    46    1
@<TRIPOS>SUBSTRUCTURE
     1 ZINC000800038938        1 TEMP              0 ****  ****    0 ROOT


##########                                Name:    ZINC000004598904
##########                DOCK_Rotatable_Bonds:                  13
##########                         Heavy_Atoms:                  30
##########                    Molecular_Weight:             412.442
##########                DOCK_Rotatable_Bonds:                  13
##########                       Formal_Charge:          -0.0300005
##########                     HBond_Acceptors:                   8
##########                        HBond_Donors:                   2
##########                         Heavy_Atoms:                  30
##########                          Grid_Score:          -34.364174
##########                     Grid_vdw_energy:          -30.500975
##########                      Grid_es_energy:           -3.863201
##########           Internal_energy_repulsive:           12.451811

@<TRIPOS>MOLECULE
ZINC000004598904
 54 55 1 0 0
SMALL
USER_CHARGES


@<TRIPOS>ATOM
      1 C1         -1.8890    3.6012   45.1344 C.3     1  ZINC000004598904   -0.1500
      2 C2         -1.7528    3.3794   46.6422 C.3     1  ZINC000004598904    0.0600
      3 O3         -1.1759    2.0700   46.8885 O.3     1  ZINC000004598904   -0.3500
      4 C4         -0.9613    1.7281   48.1741 C.2     1  ZINC000004598904    0.5100
      5 O5          0.1427    1.3664   48.5304 O.2     1  ZINC000004598904   -0.5100
      6 C6         -2.0662    1.7926   49.1486 C.ar    1  ZINC000004598904   -0.1500
      7 C7         -3.3541    1.3974   48.7747 C.ar    1  ZINC000004598904   -0.0400
      8 C8         -4.3830    1.4591   49.6869 C.ar    1  ZINC000004598904   -0.1400
      9 C9         -4.1427    1.9139   50.9798 C.ar    1  ZINC000004598904    0.1800
     10 N10        -5.1872    1.9745   51.9012 N.am    1  ZINC000004598904   -0.6700
     11 C11        -5.5337    3.1556   52.4502 C.2     1  ZINC000004598904    0.5200
     12 O12        -4.9371    4.1657   52.1427 O.2     1  ZINC000004598904   -0.5100
     13 C13        -6.6628    3.2211   53.4462 C.3     1  ZINC000004598904   -0.1300
     14 C14        -7.7743    2.2595   53.0210 C.3     1  ZINC000004598904   -0.1300
     15 C15        -8.6953    2.0091   54.1872 C.2     1  ZINC000004598904    0.5200
     16 O16        -9.5231    2.8400   54.4954 O.2     1  ZINC000004598904   -0.5100
     17 N17        -8.5991    0.8617   54.8877 N.am    1  ZINC000004598904   -0.6700
     18 C18        -9.4512    0.6301   55.9665 C.ar    1  ZINC000004598904    0.1800
     19 C19       -10.3474   -0.4337   55.9273 C.ar    1  ZINC000004598904   -0.1400
     20 C20       -11.1901   -0.6654   56.9907 C.ar    1  ZINC000004598904   -0.0300
     21 C21       -11.1445    0.1693   58.1112 C.ar    1  ZINC000004598904   -0.1500
     22 C22       -12.0455   -0.0759   59.2526 C.2     1  ZINC000004598904    0.5100
     23 O23       -13.1900    0.3305   59.2214 O.2     1  ZINC000004598904   -0.5100
     24 O24       -11.5994   -0.7508   60.3302 O.3     1  ZINC000004598904   -0.3600
     25 C25       -10.8778   -1.9861   60.0822 C.3     1  ZINC000004598904    0.0600
     26 C26        -9.6814   -2.0774   61.0315 C.3     1  ZINC000004598904   -0.1500
     27 C27       -10.2425    1.2369   58.1474 C.ar    1  ZINC000004598904   -0.0400
     28 C28        -9.3994    1.4597   57.0825 C.ar    1  ZINC000004598904   -0.1600
     29 C29        -2.8621    2.3080   51.3554 C.ar    1  ZINC000004598904   -0.1600
     30 C30        -1.8272    2.2436   50.4501 C.ar    1  ZINC000004598904   -0.0300
     31 H31        -2.5367    2.8334   44.7113 H       1  ZINC000004598904    0.0700
     32 H32        -2.3222    4.5843   44.9495 H       1  ZINC000004598904    0.0800
     33 H33        -0.9054    3.5441   44.6685 H       1  ZINC000004598904    0.0700
     34 H34        -1.1052    4.1473   47.0653 H       1  ZINC000004598904    0.0700
     35 H35        -2.7366    3.4366   47.1082 H       1  ZINC000004598904    0.0700
     36 H36        -3.5415    1.0447   47.7713 H       1  ZINC000004598904    0.1400
     37 H37        -5.3783    1.1544   49.3987 H       1  ZINC000004598904    0.1400
     38 H38        -5.6644    1.1666   52.1472 H       1  ZINC000004598904    0.4200
     39 H39        -6.2945    2.9376   54.4321 H       1  ZINC000004598904    0.1100
     40 H40        -7.0560    4.2371   53.4835 H       1  ZINC000004598904    0.1100
     41 H41        -8.3399    2.6986   52.1992 H       1  ZINC000004598904    0.1100
     42 H42        -7.3345    1.3165   52.6964 H       1  ZINC000004598904    0.1100
     43 H43        -7.9370    0.1970   54.6411 H       1  ZINC000004598904    0.4200
     44 H44       -10.3820   -1.0781   55.0613 H       1  ZINC000004598904    0.1400
     45 H45       -11.8859   -1.4907   56.9592 H       1  ZINC000004598904    0.1400
     46 H46       -11.5410   -2.8345   60.2510 H       1  ZINC000004598904    0.0700
     47 H47       -10.5252   -2.0002   59.0510 H       1  ZINC000004598904    0.0700
     48 H48        -9.1397   -3.0047   60.8454 H       1  ZINC000004598904    0.0800
     49 H49        -9.0182   -1.2290   60.8627 H       1  ZINC000004598904    0.0700
     50 H50       -10.0340   -2.0634   62.0628 H       1  ZINC000004598904    0.0700
     51 H51       -10.2049    1.8839   59.0113 H       1  ZINC000004598904    0.1400
     52 H52        -8.7020    2.2839   57.1098 H       1  ZINC000004598904    0.1400
     53 H53        -2.6791    2.6605   52.3597 H       1  ZINC000004598904    0.1400
     54 H54        -0.8335    2.5496   50.7423 H       1  ZINC000004598904    0.1400
@<TRIPOS>BOND
     1     1     2    1
     2     1    31    1
     3     1    32    1
     4     1    33    1
     5     2     3    1
     6     2    34    1
     7     2    35    1
     8     3     4    1
     9     4     5    2
    10     4     6    1
    11     6    30   ar
    12     6     7   ar
    13     7     8   ar
    14     7    36    1
    15     8     9   ar
    16     8    37    1
    17     9    10    1
    18     9    29   ar
    19    10    11   am
    20    10    38    1
    21    11    12    2
    22    11    13    1
    23    13    14    1
    24    13    39    1
    25    13    40    1
    26    14    15    1
    27    14    41    1
    28    14    42    1
    29    15    16    2
    30    15    17   am
    31    17    18    1
    32    17    43    1
    33    18    28   ar
    34    18    19   ar
    35    19    20   ar
    36    19    44    1
    37    20    21   ar
    38    20    45    1
    39    21    22    1
    40    21    27   ar
    41    22    23    2
    42    22    24    1
    43    24    25    1
    44    25    26    1
    45    25    46    1
    46    25    47    1
    47    26    48    1
    48    26    49    1
    49    26    50    1
    50    27    28   ar
    51    27    51    1
    52    28    52    1
    53    29    30   ar
    54    29    53    1
    55    30    54    1
@<TRIPOS>SUBSTRUCTURE
     1 ZINC000004598904        1 TEMP              0 ****  ****    0 ROOT


##########                                Name:    ZINC000487792031
##########                DOCK_Rotatable_Bonds:                  12
##########                         Heavy_Atoms:                  29
##########                    Molecular_Weight:             414.569
##########                DOCK_Rotatable_Bonds:                  12
##########                       Formal_Charge:          -0.0100001
##########                     HBond_Acceptors:                   6
##########                        HBond_Donors:                   1
##########                         Heavy_Atoms:                  29
##########                          Grid_Score:          -34.360477
##########                     Grid_vdw_energy:          -34.038551
##########                      Grid_es_energy:           -0.321927
##########           Internal_energy_repulsive:           19.507643

@<TRIPOS>MOLECULE
ZINC000487792031
 59 60 1 0 0
SMALL
USER_CHARGES


@<TRIPOS>ATOM
      1 C1        -14.3830    1.2056   62.6474 C.2     1  ZINC000487792031   -0.1900
      2 C2        -13.2232    1.7551   62.9104 C.2     1  ZINC000487792031   -0.1500
      3 C3        -12.0971    1.6513   61.9143 C.3     1  ZINC000487792031   -0.0900
      4 C4        -10.7586    1.6569   62.6554 C.3     1  ZINC000487792031   -0.0900
      5 C5        -10.6475    0.3974   63.5170 C.3     1  ZINC000487792031   -0.0700
      6 H6        -11.6455    0.0549   63.7903 H       1  ZINC000487792031    0.1100
      7 C7         -9.9412   -0.6828   62.7388 C.2     1  ZINC000487792031    0.5200
      8 O8         -9.1090   -1.3770   63.2833 O.2     1  ZINC000487792031   -0.5300
      9 N9        -10.2342   -0.8773   61.4378 N.am    1  ZINC000487792031   -0.7200
     10 C10        -9.5465   -1.9262   60.6808 C.3     1  ZINC000487792031    0.1500
     11 C11       -10.4712   -2.4706   59.6228 C.ar    1  ZINC000487792031   -0.0500
     12 C12       -10.5380   -3.8329   59.3977 C.ar    1  ZINC000487792031   -0.1200
     13 C13       -11.3862   -4.3323   58.4271 C.ar    1  ZINC000487792031   -0.0200
     14 C14       -12.1681   -3.4695   57.6820 C.ar    1  ZINC000487792031   -0.6700
     15 S15       -13.2488   -4.1060   56.4445 S.o2    1  ZINC000487792031    2.6900
     16 O16       -12.8521   -5.4517   56.2188 O.2     1  ZINC000487792031   -0.9500
     17 O17       -14.5652   -3.7387   56.8339 O.2     1  ZINC000487792031   -0.9500
     18 N18       -12.9287   -3.2829   55.0437 N.am    1  ZINC000487792031   -1.0000
     19 C19       -11.5887   -3.3343   54.4538 C.3     1  ZINC000487792031    0.1200
     20 C20       -11.6517   -4.0583   53.1074 C.3     1  ZINC000487792031   -0.1800
     21 C21       -13.9856   -2.5034   54.3943 C.3     1  ZINC000487792031    0.1100
     22 C22       -14.9827   -3.4529   53.7269 C.3     1  ZINC000487792031   -0.1800
     23 C23       -12.1022   -2.1073   57.9079 C.ar    1  ZINC000487792031   -0.0200
     24 C24       -11.2568   -1.6081   58.8812 C.ar    1  ZINC000487792031   -0.1200
     25 C25        -9.8643    0.7105   64.7658 C.ar    1  ZINC000487792031   -0.0800
     26 C26        -8.5152    1.0001   64.6812 C.ar    1  ZINC000487792031   -0.1100
     27 C27        -7.7969    1.2873   65.8268 C.ar    1  ZINC000487792031   -0.1100
     28 C28        -8.4276    1.2854   67.0569 C.ar    1  ZINC000487792031   -0.1200
     29 C29        -9.7769    0.9968   67.1413 C.ar    1  ZINC000487792031   -0.1200
     30 C30       -10.4961    0.7138   65.9952 C.ar    1  ZINC000487792031   -0.1100
     31 H31       -15.1901    1.2801   63.3613 H       1  ZINC000487792031    0.1000
     32 H32       -14.5335    0.6820   61.7150 H       1  ZINC000487792031    0.1000
     33 H33       -13.0741    2.2825   63.8410 H       1  ZINC000487792031    0.1100
     34 H34       -12.1959    0.7243   61.3495 H       1  ZINC000487792031    0.0700
     35 H35       -12.1374    2.4992   61.2306 H       1  ZINC000487792031    0.0700
     36 H36        -9.9431    1.6757   61.9325 H       1  ZINC000487792031    0.0800
     37 H37       -10.6999    2.5393   63.2926 H       1  ZINC000487792031    0.0700
     38 H38       -10.9006   -0.3228   61.0025 H       1  ZINC000487792031    0.4000
     39 H39        -8.6578   -1.5089   60.2070 H       1  ZINC000487792031    0.0800
     40 H40        -9.2544   -2.7299   61.3567 H       1  ZINC000487792031    0.0800
     41 H41        -9.9272   -4.5070   59.9799 H       1  ZINC000487792031    0.1400
     42 H42       -11.4380   -5.3965   58.2508 H       1  ZINC000487792031    0.1400
     43 H43       -11.2186   -2.3201   54.3039 H       1  ZINC000487792031    0.0800
     44 H44       -10.9171   -3.8709   55.1238 H       1  ZINC000487792031    0.0800
     45 H45       -12.0218   -5.0725   53.2571 H       1  ZINC000487792031    0.0600
     46 H46       -12.3233   -3.5216   52.4372 H       1  ZINC000487792031    0.0600
     47 H47       -10.6548   -4.0965   52.6685 H       1  ZINC000487792031    0.0700
     48 H48       -14.5025   -1.8998   55.1404 H       1  ZINC000487792031    0.0900
     49 H49       -13.5450   -1.8508   53.6407 H       1  ZINC000487792031    0.0900
     50 H50       -14.4659   -4.0565   52.9808 H       1  ZINC000487792031    0.0600
     51 H51       -15.4233   -4.1055   54.4805 H       1  ZINC000487792031    0.0600
     52 H52       -15.7690   -2.8728   53.2438 H       1  ZINC000487792031    0.0700
     53 H53       -12.7133   -1.4332   57.3260 H       1  ZINC000487792031    0.1400
     54 H54       -11.2054   -0.5439   59.0577 H       1  ZINC000487792031    0.1400
     55 H55        -8.0225    1.0014   63.7202 H       1  ZINC000487792031    0.1200
     56 H56        -6.7428    1.5128   65.7608 H       1  ZINC000487792031    0.1200
     57 H57        -7.8662    1.5093   67.9519 H       1  ZINC000487792031    0.1200
     58 H58       -10.2696    0.9951   68.1023 H       1  ZINC000487792031    0.1200
     59 H59       -11.5504    0.4883   66.0612 H       1  ZINC000487792031    0.1200
@<TRIPOS>BOND
     1     1     2    2
     2     1    31    1
     3     1    32    1
     4     2     3    1
     5     2    33    1
     6     3     4    1
     7     3    34    1
     8     3    35    1
     9     4     5    1
    10     4    36    1
    11     4    37    1
    12     5     6    1
    13     5     7    1
    14     5    25    1
    15     7     8    2
    16     7     9   am
    17     9    10    1
    18     9    38    1
    19    10    11    1
    20    10    39    1
    21    10    40    1
    22    11    24   ar
    23    11    12   ar
    24    12    13   ar
    25    12    41    1
    26    13    14   ar
    27    13    42    1
    28    14    15    1
    29    14    23   ar
    30    15    16    2
    31    15    17    2
    32    15    18   am
    33    18    19    1
    34    18    21    1
    35    19    20    1
    36    19    43    1
    37    19    44    1
    38    20    45    1
    39    20    46    1
    40    20    47    1
    41    21    22    1
    42    21    48    1
    43    21    49    1
    44    22    50    1
    45    22    51    1
    46    22    52    1
    47    23    24   ar
    48    23    53    1
    49    24    54    1
    50    25    30   ar
    51    25    26   ar
    52    26    27   ar
    53    26    55    1
    54    27    28   ar
    55    27    56    1
    56    28    29   ar
    57    28    57    1
    58    29    30   ar
    59    29    58    1
    60    30    59    1
@<TRIPOS>SUBSTRUCTURE
     1 ZINC000487792031        1 TEMP              0 ****  ****    0 ROOT


##########                                Name:    ZINC000007167963
##########                DOCK_Rotatable_Bonds:                   8
##########                         Heavy_Atoms:                  25
##########                    Molecular_Weight:             378.433
##########                DOCK_Rotatable_Bonds:                   8
##########                       Formal_Charge:        -1.01328e-06
##########                     HBond_Acceptors:                  10
##########                        HBond_Donors:                   3
##########                         Heavy_Atoms:                  25
##########                          Grid_Score:          -34.359974
##########                     Grid_vdw_energy:          -33.439392
##########                      Grid_es_energy:           -0.920582
##########           Internal_energy_repulsive:            7.104470

@<TRIPOS>MOLECULE
ZINC000007167963
 39 41 1 0 0
SMALL
USER_CHARGES


@<TRIPOS>ATOM
      1 C1         -8.1881    2.5396   52.8416 C.3     1  ZINC000007167963   -0.0800
      2 C2         -7.5770    1.4979   51.9402 C.2     1  ZINC000007167963    0.0900
      3 C3         -8.0816    0.2567   51.7018 C.2     1  ZINC000007167963   -0.1500
      4 C4         -9.3165   -0.3281   52.2652 C.2     1  ZINC000007167963    0.2600
      5 N5         -9.9211   -1.4140   51.8488 N.2     1  ZINC000007167963   -0.2700
      6 N6        -10.9648   -1.6260   52.5705 N.2     1  ZINC000007167963   -0.2800
      7 C7        -11.0683   -0.6837   53.4768 C.2     1  ZINC000007167963    0.1200
      8 S8        -12.3326   -0.5439   54.6961 S.3     1  ZINC000007167963    0.1500
      9 C9        -11.4882    0.5055   55.9054 C.3     1  ZINC000007167963   -0.1200
     10 H10       -10.8063    1.1801   55.3877 H       1  ZINC000007167963    0.1400
     11 C11       -12.5227    1.3229   56.6817 C.3     1  ZINC000007167963   -0.1500
     12 C12       -10.7092   -0.3586   56.8632 C.2     1  ZINC000007167963    0.5300
     13 O13        -9.5329   -0.1381   57.0594 O.2     1  ZINC000007167963   -0.4900
     14 N14       -11.3198   -1.3765   57.5017 N.am    1  ZINC000007167963   -0.6100
     15 C15       -10.6033   -2.1705   58.3843 C.2     1  ZINC000007167963    0.0800
     16 C16       -10.4730   -3.5310   58.2791 C.2     1  ZINC000007167963   -0.2400
     17 C17       -11.0827   -4.3239   57.2070 C.2     1  ZINC000007167963    0.5900
     18 N18       -11.8117   -5.4168   57.5080 N.am    1  ZINC000007167963   -0.8400
     19 O19       -10.9305   -3.9951   56.0450 O.2     1  ZINC000007167963   -0.5600
     20 C20        -9.6691   -4.1009   59.3379 C.2     1  ZINC000007167963   -0.0900
     21 C21        -9.2204   -3.1961   60.1963 C.2     1  ZINC000007167963   -0.2800
     22 S22        -9.7579   -1.5880   59.7448 S.3     1  ZINC000007167963    0.3000
     23 O23       -10.0270    0.1549   53.3081 O.3     1  ZINC000007167963   -0.2000
     24 C24        -7.1444   -0.3809   50.7677 C.2     1  ZINC000007167963   -0.1800
     25 C25        -6.1792    0.5237   50.5360 C.2     1  ZINC000007167963   -0.0300
     26 O26        -6.4470    1.6387   51.2325 O.3     1  ZINC000007167963   -0.1700
     27 H27        -7.5679    3.4359   52.8338 H       1  ZINC000007167963    0.0800
     28 H28        -9.1882    2.7867   52.4855 H       1  ZINC000007167963    0.1000
     29 H29        -8.2502    2.1497   53.8576 H       1  ZINC000007167963    0.1000
     30 H30       -13.0862    1.9479   55.9889 H       1  ZINC000007167963    0.0900
     31 H31       -13.2046    0.6482   57.1993 H       1  ZINC000007167963    0.0800
     32 H32       -12.0143    1.9548   57.4098 H       1  ZINC000007167963    0.0800
     33 H33       -12.2603   -1.5535   57.3438 H       1  ZINC000007167963    0.4400
     34 H34       -12.2140   -5.9419   56.7986 H       1  ZINC000007167963    0.4000
     35 H35       -11.9341   -5.6782   58.4340 H       1  ZINC000007167963    0.4100
     36 H36        -9.4568   -5.1565   59.4211 H       1  ZINC000007167963    0.1500
     37 H37        -8.6041   -3.4182   61.0550 H       1  ZINC000007167963    0.1700
     38 H38        -7.2166   -1.3751   50.3522 H       1  ZINC000007167963    0.1600
     39 H39        -5.3264    0.3784   49.8894 H       1  ZINC000007167963    0.2200
@<TRIPOS>BOND
     1     1     2    1
     2     1    27    1
     3     1    28    1
     4     1    29    1
     5     2    26    1
     6     2     3    2
     7     3     4    1
     8     3    24    1
     9     4    23    1
    10     4     5    2
    11     5     6    1
    12     6     7    2
    13     7     8    1
    14     7    23    1
    15     8     9    1
    16     9    10    1
    17     9    11    1
    18     9    12    1
    19    11    30    1
    20    11    31    1
    21    11    32    1
    22    12    13    2
    23    12    14   am
    24    14    15    1
    25    14    33    1
    26    15    22    1
    27    15    16    2
    28    16    17    1
    29    16    20    1
    30    17    18   am
    31    17    19    2
    32    18    34    1
    33    18    35    1
    34    20    21    2
    35    20    36    1
    36    21    22    1
    37    21    37    1
    38    24    25    2
    39    24    38    1
    40    25    26    1
    41    25    39    1
@<TRIPOS>SUBSTRUCTURE
     1 ZINC000007167963        1 TEMP              0 ****  ****    0 ROOT


##########                                Name:    ZINC000013551438
##########                DOCK_Rotatable_Bonds:                   5
##########                         Heavy_Atoms:                  27
##########                    Molecular_Weight:             377.467
##########                DOCK_Rotatable_Bonds:                   5
##########                       Formal_Charge:          -0.0300005
##########                     HBond_Acceptors:                   6
##########                        HBond_Donors:                   1
##########                         Heavy_Atoms:                  27
##########                          Grid_Score:          -34.342751
##########                     Grid_vdw_energy:          -33.379097
##########                      Grid_es_energy:           -0.963654
##########           Internal_energy_repulsive:           15.173078

@<TRIPOS>MOLECULE
ZINC000013551438
 46 49 1 0 0
SMALL
USER_CHARGES


@<TRIPOS>ATOM
      1 C1        -14.3259   -5.8962   56.5733 C.3     1  <0>         0.0300
      2 O2        -14.3565   -5.1867   55.3333 O.3     1  <0>        -0.3200
      3 C3        -13.6047   -4.0566   55.2500 C.ar    1  <0>         0.1000
      4 C4        -13.7233   -3.2248   54.1401 C.ar    1  <0>        -0.1800
      5 C5        -12.9690   -2.0769   54.0404 C.ar    1  <0>        -0.0900
      6 C6        -12.0788   -1.7393   55.0546 C.ar    1  <0>         0.0700
      7 C7        -11.9580   -2.5775   56.1761 C.ar    1  <0>        -0.0400
      8 C8        -12.7301   -3.7349   56.2697 C.ar    1  <0>        -0.1100
      9 C9        -10.9515   -1.9501   57.0472 C.2     1  <0>        -0.1200
     10 C10       -10.4740   -2.4585   58.3565 C.2     1  <0>         0.1700
     11 C11       -10.2005   -3.7573   58.5816 C.2     1  <0>        -0.3000
     12 S12        -9.6677   -3.9206   60.2526 S.3     1  <0>         0.2500
     13 C13        -9.8600   -2.2396   60.4937 C.2     1  <0>         0.2400
     14 N14        -9.6025   -1.5757   61.6857 N.am    1  <0>        -0.6200
     15 C15       -10.5524   -0.7994   62.2436 C.2     1  <0>         0.5600
     16 O16       -11.6354   -0.6816   61.7040 O.2     1  <0>        -0.5000
     17 C17       -10.2777   -0.0914   63.5115 C.ar    1  <0>        -0.1400
     18 C18       -11.0893    0.9720   63.9107 C.ar    1  <0>        -0.0800
     19 C19       -10.8278    1.6283   65.0956 C.ar    1  <0>        -0.1300
     20 C20        -9.7637    1.2347   65.8876 C.ar    1  <0>        -0.0800
     21 C21        -8.9550    0.1819   65.4976 C.ar    1  <0>        -0.1300
     22 C22        -9.2090   -0.4867   64.3180 C.ar    1  <0>        -0.0500
     23 N23       -10.2738   -1.6715   59.4061 N.2     1  <0>        -0.5000
     24 C24       -10.5449   -0.8194   56.4225 C.2     1  <0>         0.1300
     25 C25        -9.5149    0.1431   56.9553 C.3     1  <0>        -0.0900
     26 N26       -11.2093   -0.6833   55.2346 N.pl3   1  <0>        -0.4800
     27 C27       -11.0241    0.4218   54.2909 C.3     1  <0>         0.0800
     28 H28       -14.6836   -5.2470   57.3725 H       1  <0>         0.0500
     29 H29       -14.9670   -6.7752   56.5049 H       1  <0>         0.1000
     30 H30       -13.3038   -6.2079   56.7885 H       1  <0>         0.0500
     31 H31       -14.4127   -3.4825   53.3496 H       1  <0>         0.1300
     32 H32       -13.0686   -1.4388   53.1747 H       1  <0>         0.1200
     33 H33       -12.6389   -4.3805   57.1307 H       1  <0>         0.1300
     34 H34       -10.2919   -4.5588   57.8634 H       1  <0>         0.1800
     35 H35        -8.7388   -1.6707   62.1170 H       1  <0>         0.4200
     36 H36       -11.9200    1.2803   63.2932 H       1  <0>         0.1300
     37 H37       -11.4546    2.4513   65.4055 H       1  <0>         0.1300
     38 H38        -9.5632    1.7519   66.8143 H       1  <0>         0.1300
     39 H39        -8.1258   -0.1201   66.1203 H       1  <0>         0.1300
     40 H40        -8.5773   -1.3085   64.0148 H       1  <0>         0.1400
     41 H41        -8.5388   -0.1004   56.5360 H       1  <0>         0.0800
     42 H42        -9.7880    1.1600   56.6735 H       1  <0>         0.0700
     43 H43        -9.4732    0.0660   58.0418 H       1  <0>         0.0800
     44 H44       -10.2371    0.1659   53.5816 H       1  <0>         0.0700
     45 H45       -11.9549    0.5996   53.7523 H       1  <0>         0.0800
     46 H46       -10.7425    1.3223   54.8368 H       1  <0>         0.0800
@<TRIPOS>BOND
     1     1     2    1
     2     1    28    1
     3     1    29    1
     4     1    30    1
     5     2     3    1
     6     3     8   ar
     7     3     4   ar
     8     4     5   ar
     9     4    31    1
    10     5     6   ar
    11     5    32    1
    12     6    26    1
    13     6     7   ar
    14     7     8   ar
    15     7     9    1
    16     8    33    1
    17     9    10    1
    18     9    24    2
    19    10    23    1
    20    10    11    2
    21    11    12    1
    22    11    34    1
    23    12    13    1
    24    13    14    1
    25    13    23    2
    26    14    15   am
    27    14    35    1
    28    15    16    2
    29    15    17    1
    30    17    22   ar
    31    17    18   ar
    32    18    19   ar
    33    18    36    1
    34    19    20   ar
    35    19    37    1
    36    20    21   ar
    37    20    38    1
    38    21    22   ar
    39    21    39    1
    40    22    40    1
    41    24    25    1
    42    24    26    1
    43    25    41    1
    44    25    42    1
    45    25    43    1
    46    26    27    1
    47    27    44    1
    48    27    45    1
    49    27    46    1
@<TRIPOS>SUBSTRUCTURE
     1 <0>         1 TEMP              0 ****  ****    0 ROOT


##########                                Name:    ZINC000504638019
##########                DOCK_Rotatable_Bonds:                   8
##########                         Heavy_Atoms:                  24
##########                    Molecular_Weight:             328.454
##########                DOCK_Rotatable_Bonds:                   8
##########                       Formal_Charge:        -1.49012e-08
##########                     HBond_Acceptors:                   4
##########                        HBond_Donors:                   1
##########                         Heavy_Atoms:                  24
##########                          Grid_Score:          -34.307056
##########                     Grid_vdw_energy:          -33.680561
##########                      Grid_es_energy:           -0.626495
##########           Internal_energy_repulsive:           18.899282

@<TRIPOS>MOLECULE
ZINC000504638019
 52 53 1 0 0
SMALL
USER_CHARGES


@<TRIPOS>ATOM
      1 C1         -9.3645   -0.2120   64.4888 C.3     1  ZINC000504638019   -0.1200
      2 C2         -9.8399   -0.6127   63.1160 C.ar    1  ZINC000504638019   -0.0900
      3 C3        -10.9798   -0.0391   62.5846 C.ar    1  ZINC000504638019   -0.1200
      4 C4        -11.4159   -0.4066   61.3255 C.ar    1  ZINC000504638019   -0.1100
      5 C5        -10.7118   -1.3475   60.5974 C.ar    1  ZINC000504638019   -0.0900
      6 C6        -11.1875   -1.7485   59.2249 C.3     1  ZINC000504638019   -0.0600
      7 H7        -12.1231   -1.2363   59.0005 H       1  ZINC000504638019    0.0900
      8 C8        -10.1325   -1.3617   58.1863 C.3     1  ZINC000504638019   -0.1500
      9 C9        -11.4118   -3.2614   59.1848 C.3     1  ZINC000504638019    0.1300
     10 N10       -12.6075   -3.5569   58.3914 N.am    1  ZINC000504638019   -0.7000
     11 C11       -12.5868   -4.5572   57.4883 C.2     1  ZINC000504638019    0.5100
     12 O12       -11.5782   -5.2140   57.3334 O.2     1  ZINC000504638019   -0.5100
     13 C13       -13.8059   -4.8575   56.6777 C.2     1  ZINC000504638019    0.5100
     14 O14       -14.3994   -5.9036   56.8392 O.2     1  ZINC000504638019   -0.5200
     15 N15       -14.2462   -3.9665   55.7674 N.am    1  ZINC000504638019   -0.5800
     16 C16       -15.4412   -4.2610   54.9728 C.3     1  ZINC000504638019    0.0600
     17 C17       -13.5298   -2.7036   55.5725 C.3     1  ZINC000504638019    0.1100
     18 C18       -13.0740   -2.5954   54.1161 C.3     1  ZINC000504638019   -0.1000
     19 H19       -13.9270   -2.7410   53.4534 H       1  ZINC000504638019    0.0800
     20 C20       -12.0122   -3.6593   53.8290 C.3     1  ZINC000504638019   -0.0800
     21 C21       -11.3678   -3.4007   52.4985 C.2     1  ZINC000504638019   -0.1500
     22 C22       -11.4338   -2.2722   51.8679 C.2     1  ZINC000504638019   -0.1600
     23 C23       -12.1722   -1.0679   52.3742 C.3     1  ZINC000504638019   -0.0900
     24 C24       -12.4597   -1.2116   53.8694 C.3     1  ZINC000504638019   -0.1100
     25 C25        -9.5710   -1.9200   61.1283 C.ar    1  ZINC000504638019   -0.1100
     26 C26        -9.1328   -1.5497   62.3859 C.ar    1  ZINC000504638019   -0.1200
     27 H27        -8.6839    0.6352   64.4046 H       1  ZINC000504638019    0.0700
     28 H28       -10.2206    0.0693   65.1021 H       1  ZINC000504638019    0.0700
     29 H29        -8.8452   -1.0506   64.9526 H       1  ZINC000504638019    0.0700
     30 H30       -11.5299    0.6959   63.1534 H       1  ZINC000504638019    0.1200
     31 H31       -12.3069    0.0409   60.9106 H       1  ZINC000504638019    0.1200
     32 H32       -10.4766   -1.6518   57.1936 H       1  ZINC000504638019    0.0600
     33 H33        -9.9727   -0.2839   58.2148 H       1  ZINC000504638019    0.0600
     34 H34        -9.1969   -1.8739   58.4107 H       1  ZINC000504638019    0.0600
     35 H35       -10.5465   -3.7453   58.7318 H       1  ZINC000504638019    0.0800
     36 H36       -11.5475   -3.6356   60.1996 H       1  ZINC000504638019    0.0800
     37 H37       -13.4141   -3.0328   58.5162 H       1  ZINC000504638019    0.4100
     38 H38       -16.3311   -3.9875   55.5398 H       1  ZINC000504638019    0.0600
     39 H39       -15.4112   -3.6887   54.0456 H       1  ZINC000504638019    0.0700
     40 H40       -15.4707   -5.3258   54.7418 H       1  ZINC000504638019    0.1100
     41 H41       -14.1914   -1.8703   55.8090 H       1  ZINC000504638019    0.0900
     42 H42       -12.6599   -2.6743   56.2286 H       1  ZINC000504638019    0.0900
     43 H43       -11.2523   -3.6313   54.6100 H       1  ZINC000504638019    0.0800
     44 H44       -12.4805   -4.6434   53.8184 H       1  ZINC000504638019    0.0600
     45 H45       -10.8145   -4.2061   52.0388 H       1  ZINC000504638019    0.1000
     46 H46       -10.9254   -2.1922   50.9183 H       1  ZINC000504638019    0.1000
     47 H47       -11.5681   -0.1764   52.2056 H       1  ZINC000504638019    0.0700
     48 H48       -13.1152   -0.9698   51.8366 H       1  ZINC000504638019    0.0700
     49 H49       -13.1560   -0.4346   54.1850 H       1  ZINC000504638019    0.0700
     50 H50       -11.5297   -1.1247   54.4314 H       1  ZINC000504638019    0.0700
     51 H51        -9.0206   -2.6548   60.5594 H       1  ZINC000504638019    0.1200
     52 H52        -8.2416   -1.9970   62.8006 H       1  ZINC000504638019    0.1200
@<TRIPOS>BOND
     1     1     2    1
     2     1    27    1
     3     1    28    1
     4     1    29    1
     5     2    26   ar
     6     2     3   ar
     7     3     4   ar
     8     3    30    1
     9     4     5   ar
    10     4    31    1
    11     5     6    1
    12     5    25   ar
    13     6     7    1
    14     6     8    1
    15     6     9    1
    16     8    32    1
    17     8    33    1
    18     8    34    1
    19     9    10    1
    20     9    35    1
    21     9    36    1
    22    10    11   am
    23    10    37    1
    24    11    12    2
    25    11    13    1
    26    13    14    2
    27    13    15   am
    28    15    16    1
    29    15    17    1
    30    16    38    1
    31    16    39    1
    32    16    40    1
    33    17    18    1
    34    17    41    1
    35    17    42    1
    36    18    19    1
    37    18    24    1
    38    18    20    1
    39    20    21    1
    40    20    43    1
    41    20    44    1
    42    21    22    2
    43    21    45    1
    44    22    23    1
    45    22    46    1
    46    23    24    1
    47    23    47    1
    48    23    48    1
    49    24    49    1
    50    24    50    1
    51    25    26   ar
    52    25    51    1
    53    26    52    1
@<TRIPOS>SUBSTRUCTURE
     1 ZINC000504638019        1 TEMP              0 ****  ****    0 ROOT


##########                                Name:    ZINC000186105981
##########                DOCK_Rotatable_Bonds:                   6
##########                         Heavy_Atoms:                  26
##########                    Molecular_Weight:             396.873
##########                DOCK_Rotatable_Bonds:                   6
##########                       Formal_Charge:          -0.0400003
##########                     HBond_Acceptors:                   9
##########                        HBond_Donors:                   1
##########                         Heavy_Atoms:                  26
##########                          Grid_Score:          -34.306908
##########                     Grid_vdw_energy:          -34.253780
##########                      Grid_es_energy:           -0.053126
##########           Internal_energy_repulsive:           14.198262

@<TRIPOS>MOLECULE
ZINC000186105981
 44 46 1 0 0
SMALL
USER_CHARGES


@<TRIPOS>ATOM
      1 C1        -14.3894   -5.2015   54.4300 C.3     1  ZINC000186105981   -0.1400
      2 C2        -13.9811   -4.2690   55.5722 C.3     1  ZINC000186105981   -0.1100
      3 C3        -14.0923   -5.0145   56.9037 C.3     1  ZINC000186105981   -0.1600
      4 C4        -12.5367   -3.8096   55.3641 C.3     1  ZINC000186105981    0.1600
      5 H5        -11.8822   -4.6799   55.3143 H       1  ZINC000186105981    0.1200
      6 C6        -12.1180   -2.9315   56.5151 C.2     1  ZINC000186105981    0.4900
      7 O7        -12.8519   -2.0464   56.9008 O.2     1  ZINC000186105981   -0.4300
      8 N8        -10.9279   -3.1297   57.1158 N.am    1  ZINC000186105981   -0.6300
      9 C9        -10.5418   -2.3200   58.1771 C.2     1  ZINC000186105981    0.2400
     10 N10        -9.5684   -1.4544   58.1671 N.2     1  ZINC000186105981   -0.2600
     11 N11        -9.3546   -0.7998   59.2236 N.2     1  ZINC000186105981   -0.2000
     12 C12       -10.1235   -1.0371   60.2491 C.2     1  ZINC000186105981    0.0300
     13 C13       -10.0393   -0.3809   61.5708 C.ar    1  ZINC000186105981   -0.0500
     14 C14        -9.3530   -0.9992   62.6193 C.ar    1  ZINC000186105981    0.1300
     15 F15        -8.7638   -2.1999   62.4282 F       1  ZINC000186105981   -0.1200
     16 C16        -9.2783   -0.3789   63.8522 C.ar    1  ZINC000186105981   -0.1400
     17 C17        -9.8807    0.8504   64.0488 C.ar    1  ZINC000186105981   -0.0600
     18 C18       -10.5621    1.4679   63.0149 C.ar    1  ZINC000186105981   -0.1200
     19 C19       -10.6403    0.8631   61.7762 C.ar    1  ZINC000186105981    0.0200
     20 Cl20      -11.4955    1.6406   60.4809 Cl      1  ZINC000186105981   -0.0100
     21 S21       -11.2878   -2.2759   59.7758 S.3     1  ZINC000186105981    0.1200
     22 N22       -12.4401   -3.0537   54.1129 N.am    1  ZINC000186105981   -0.6100
     23 C23       -12.7547   -1.6261   53.9816 C.3     1  ZINC000186105981    0.1000
     24 C24       -12.1069   -1.1821   52.6514 C.3     1  ZINC000186105981   -0.1300
     25 C25       -12.0592   -2.5122   51.8644 C.3     1  ZINC000186105981   -0.1600
     26 C26       -12.0466   -3.5769   52.9390 C.2     1  ZINC000186105981    0.5200
     27 O27       -11.7339   -4.7357   52.7651 O.2     1  ZINC000186105981   -0.5000
     28 H28       -15.4184   -5.5287   54.5784 H       1  ZINC000186105981    0.0600
     29 H29       -14.3101   -4.6704   53.4815 H       1  ZINC000186105981    0.0600
     30 H30       -13.7304   -6.0696   54.4165 H       1  ZINC000186105981    0.0600
     31 H31       -14.6401   -3.4009   55.5858 H       1  ZINC000186105981    0.0900
     32 H32       -13.3662   -5.8272   56.9269 H       1  ZINC000186105981    0.0600
     33 H33       -13.8923   -4.3251   57.7240 H       1  ZINC000186105981    0.0600
     34 H34       -15.0976   -5.4224   57.0089 H       1  ZINC000186105981    0.0700
     35 H35       -10.3409   -3.8377   56.8073 H       1  ZINC000186105981    0.4200
     36 H36        -8.7487   -0.8553   64.6639 H       1  ZINC000186105981    0.1500
     37 H37        -9.8191    1.3307   65.0142 H       1  ZINC000186105981    0.1500
     38 H38       -11.0303    2.4277   63.1761 H       1  ZINC000186105981    0.1500
     39 H39       -13.8341   -1.4798   53.9428 H       1  ZINC000186105981    0.0700
     40 H40       -12.3273   -1.0676   54.8143 H       1  ZINC000186105981    0.0800
     41 H41       -12.7299   -0.4484   52.1399 H       1  ZINC000186105981    0.0900
     42 H42       -11.1032   -0.7910   52.8178 H       1  ZINC000186105981    0.0800
     43 H43       -12.9413   -2.6133   51.2321 H       1  ZINC000186105981    0.1100
     44 H44       -11.1504   -2.5684   51.2649 H       1  ZINC000186105981    0.1000
@<TRIPOS>BOND
     1     1     2    1
     2     1    28    1
     3     1    29    1
     4     1    30    1
     5     2     3    1
     6     2     4    1
     7     2    31    1
     8     3    32    1
     9     3    33    1
    10     3    34    1
    11     4     5    1
    12     4     6    1
    13     4    22    1
    14     6     7    2
    15     6     8   am
    16     8     9    1
    17     8    35    1
    18     9    21    1
    19     9    10    2
    20    10    11    1
    21    11    12    2
    22    12    13    1
    23    12    21    1
    24    13    19   ar
    25    13    14   ar
    26    14    15    1
    27    14    16   ar
    28    16    17   ar
    29    16    36    1
    30    17    18   ar
    31    17    37    1
    32    18    19   ar
    33    18    38    1
    34    19    20    1
    35    22    26   am
    36    22    23    1
    37    23    24    1
    38    23    39    1
    39    23    40    1
    40    24    25    1
    41    24    41    1
    42    24    42    1
    43    25    26    1
    44    25    43    1
    45    25    44    1
    46    26    27    2
@<TRIPOS>SUBSTRUCTURE
     1 ZINC000186105981        1 TEMP              0 ****  ****    0 ROOT


##########                                Name:    ZINC000279452407
##########                DOCK_Rotatable_Bonds:                   6
##########                         Heavy_Atoms:                  24
##########                    Molecular_Weight:              375.47
##########                DOCK_Rotatable_Bonds:                   6
##########                       Formal_Charge:          0.00999929
##########                     HBond_Acceptors:                  10
##########                        HBond_Donors:                   3
##########                         Heavy_Atoms:                  24
##########                          Grid_Score:          -34.305859
##########                     Grid_vdw_energy:          -31.754236
##########                      Grid_es_energy:           -2.551622
##########           Internal_energy_repulsive:           26.525040

@<TRIPOS>MOLECULE
ZINC000279452407
 45 47 1 0 0
SMALL
USER_CHARGES


@<TRIPOS>ATOM
      1 C1        -11.0938   -0.6952   58.2277 C.3     1  ZINC000279452407   -0.1600
      2 C2        -10.6293   -2.0103   57.5985 C.3     1  ZINC000279452407    0.0600
      3 H3         -9.5441   -2.0099   57.4968 H       1  ZINC000279452407    0.0700
      4 O4        -11.2423   -2.1793   56.3076 O.3     1  ZINC000279452407   -0.3700
      5 C5        -11.4753   -3.5940   56.1329 C.3     1  ZINC000279452407    0.0500
      6 C6        -11.9456   -4.0609   57.5352 C.3     1  ZINC000279452407   -0.1400
      7 C7        -11.0722   -3.1932   58.4720 C.3     1  ZINC000279452407    0.0700
      8 C8        -11.9060   -2.6991   59.6515 C.3     1  ZINC000279452407    0.1100
      9 N9        -11.0086   -2.0313   60.6093 N.am    1  ZINC000279452407   -0.6300
     10 C10       -11.2988   -0.8090   61.0976 C.2     1  ZINC000279452407    0.7200
     11 O11       -12.3149   -0.2402   60.7479 O.2     1  ZINC000279452407   -0.5800
     12 N12       -10.4627   -0.2173   61.9736 N.am    1  ZINC000279452407   -0.7500
     13 C13       -10.7782    1.1112   62.5042 C.3     1  ZINC000279452407    0.2000
     14 C14       -10.1573    1.2675   63.8685 C.2     1  ZINC000279452407   -0.1700
     15 C15       -10.5967    2.0882   64.8238 C.2     1  ZINC000279452407   -0.1400
     16 C16        -9.8644    2.0613   65.9981 C.2     1  ZINC000279452407    0.0100
     17 C17        -8.8304    1.2187   65.9965 C.2     1  ZINC000279452407   -0.7900
     18 S18        -7.7223    0.9680   67.3434 S.o2    1  ZINC000279452407    2.7300
     19 N19        -6.2637    0.5184   66.7010 N.am    1  ZINC000279452407   -1.2500
     20 O20        -7.5221    2.2418   67.9407 O.2     1  ZINC000279452407   -0.9600
     21 O21        -8.2096   -0.1583   68.0596 O.2     1  ZINC000279452407   -0.9500
     22 S22        -8.7471    0.3902   64.4473 S.3     1  ZINC000279452407    0.2500
     23 C23        -9.7852   -2.7404   61.0170 C.3     1  ZINC000279452407    0.0700
     24 C24        -9.0467   -3.2001   59.7548 C.3     1  ZINC000279452407    0.0400
     25 O25        -9.9480   -3.9379   58.9241 O.3     1  ZINC000279452407   -0.3600
     26 H26       -10.5577   -0.5303   59.1622 H       1  ZINC000279452407    0.0700
     27 H27       -10.8906    0.1273   57.5421 H       1  ZINC000279452407    0.0600
     28 H28       -12.1643   -0.7461   58.4271 H       1  ZINC000279452407    0.0800
     29 H29       -12.2544   -3.7655   55.3902 H       1  ZINC000279452407    0.1000
     30 H30       -10.5540   -4.1022   55.8484 H       1  ZINC000279452407    0.0700
     31 H31       -13.0049   -3.8493   57.6811 H       1  ZINC000279452407    0.1000
     32 H32       -11.7378   -5.1206   57.6827 H       1  ZINC000279452407    0.1000
     33 H33       -12.6568   -1.9921   59.2988 H       1  ZINC000279452407    0.1200
     34 H34       -12.3937   -3.5453   60.1353 H       1  ZINC000279452407    0.0800
     35 H35        -9.6520   -0.6711   62.2525 H       1  ZINC000279452407    0.4000
     36 H36       -10.3807    1.8738   61.8346 H       1  ZINC000279452407    0.1000
     37 H37       -11.8595    1.2239   62.5821 H       1  ZINC000279452407    0.0900
     38 H38       -11.4582    2.7258   64.6909 H       1  ZINC000279452407    0.1600
     39 H39       -10.1114    2.6763   66.8510 H       1  ZINC000279452407    0.1600
     40 H40        -6.1987   -0.2840   66.1600 H       1  ZINC000279452407    0.4200
     41 H41        -5.4743    1.0575   66.8659 H       1  ZINC000279452407    0.4200
     42 H42        -9.1467   -2.0690   61.5910 H       1  ZINC000279452407    0.0900
     43 H43       -10.0490   -3.6071   61.6231 H       1  ZINC000279452407    0.0900
     44 H44        -8.6796   -2.3300   59.2106 H       1  ZINC000279452407    0.0600
     45 H45        -8.2070   -3.8359   60.0355 H       1  ZINC000279452407    0.1100
@<TRIPOS>BOND
     1     1     2    1
     2     1    26    1
     3     1    27    1
     4     1    28    1
     5     2     3    1
     6     2     7    1
     7     2     4    1
     8     4     5    1
     9     5     6    1
    10     5    29    1
    11     5    30    1
    12     6     7    1
    13     6    31    1
    14     6    32    1
    15     7    25    1
    16     7     8    1
    17     8     9    1
    18     8    33    1
    19     8    34    1
    20     9    10   am
    21     9    23    1
    22    10    11    2
    23    10    12   am
    24    12    13    1
    25    12    35    1
    26    13    14    1
    27    13    36    1
    28    13    37    1
    29    14    22    1
    30    14    15    2
    31    15    16    1
    32    15    38    1
    33    16    17    2
    34    16    39    1
    35    17    18    1
    36    17    22    1
    37    18    19   am
    38    18    20    2
    39    18    21    2
    40    19    40    1
    41    19    41    1
    42    23    24    1
    43    23    42    1
    44    23    43    1
    45    24    25    1
    46    24    44    1
    47    24    45    1
@<TRIPOS>SUBSTRUCTURE
     1 ZINC000279452407        1 TEMP              0 ****  ****    0 ROOT


##########                                Name:    ZINC000854704989
##########                DOCK_Rotatable_Bonds:                   5
##########                         Heavy_Atoms:                  22
##########                    Molecular_Weight:             365.227
##########                DOCK_Rotatable_Bonds:                   5
##########                       Formal_Charge:        -1.78814e-07
##########                     HBond_Acceptors:                   5
##########                        HBond_Donors:                   1
##########                         Heavy_Atoms:                  22
##########                          Grid_Score:          -34.291241
##########                     Grid_vdw_energy:          -34.468769
##########                      Grid_es_energy:            0.177528
##########           Internal_energy_repulsive:            4.898045

@<TRIPOS>MOLECULE
ZINC000854704989
 39 41 1 0 0
SMALL
USER_CHARGES


@<TRIPOS>ATOM
      1 O1        -12.3312   -4.8180   53.0599 O.2     1  ZINC000854704989   -0.5300
      2 C2        -12.0926   -3.9508   53.8776 C.2     1  ZINC000854704989    0.5700
      3 N3        -11.3222   -2.8983   53.5384 N.am    1  ZINC000854704989   -0.7300
      4 C4        -10.7672   -2.8024   52.1860 C.3     1  ZINC000854704989    0.2000
      5 C5         -9.7482   -1.6932   52.1386 C.2     1  ZINC000854704989   -0.0500
      6 C6         -9.9389   -0.4017   52.4981 C.2     1  ZINC000854704989   -0.1700
      7 C7         -8.6839    0.2075   52.2627 C.2     1  ZINC000854704989    0.0000
      8 Br8        -8.2325    2.0210   52.5514 Br      1  ZINC000854704989    0.0600
      9 N9         -7.9009   -0.7289   51.8079 N.2     1  ZINC000854704989   -0.3200
     10 O10        -8.4729   -1.7919   51.7378 O.3     1  ZINC000854704989    0.1300
     11 C11       -12.6527   -4.0475   55.2425 C.ar    1  ZINC000854704989   -0.1300
     12 C12       -13.8838   -4.6705   55.4525 C.ar    1  ZINC000854704989   -0.0900
     13 C13       -14.4006   -4.7577   56.7287 C.ar    1  ZINC000854704989   -0.1200
     14 C14       -13.7016   -4.2289   57.7990 C.ar    1  ZINC000854704989   -0.0900
     15 C15       -12.4804   -3.6098   57.5977 C.ar    1  ZINC000854704989   -0.0800
     16 C16       -11.7259   -3.0366   58.7695 C.3     1  ZINC000854704989   -0.0800
     17 H17       -12.3091   -3.1731   59.6802 H       1  ZINC000854704989    0.0900
     18 C18       -11.4795   -1.5425   58.5385 C.3     1  ZINC000854704989   -0.1100
     19 C19       -10.6454   -0.9886   59.6977 C.3     1  ZINC000854704989   -0.1600
     20 C20        -9.3410   -1.7831   59.8029 C.3     1  ZINC000854704989    0.0600
     21 O21        -9.6419   -3.1680   59.9862 O.3     1  ZINC000854704989   -0.3800
     22 C22       -10.3804   -3.7531   58.9116 C.3     1  ZINC000854704989    0.0700
     23 C23       -11.9498   -3.5210   56.3276 C.ar    1  ZINC000854704989   -0.0500
     24 H24       -11.1352   -2.2043   54.1897 H       1  ZINC000854704989    0.4000
     25 H25       -10.2899   -3.7460   51.9214 H       1  ZINC000854704989    0.1100
     26 H26       -11.5688   -2.5899   51.4786 H       1  ZINC000854704989    0.1000
     27 H27       -10.8403    0.0573   52.8765 H       1  ZINC000854704989    0.1900
     28 H28       -14.4307   -5.0831   54.6176 H       1  ZINC000854704989    0.1200
     29 H29       -15.3531   -5.2397   56.8926 H       1  ZINC000854704989    0.1300
     30 H30       -14.1108   -4.2992   58.7960 H       1  ZINC000854704989    0.1300
     31 H31       -10.9400   -1.4025   57.6017 H       1  ZINC000854704989    0.0700
     32 H32       -12.4340   -1.0182   58.4929 H       1  ZINC000854704989    0.0700
     33 H33       -10.4184    0.0615   59.5139 H       1  ZINC000854704989    0.0800
     34 H34       -11.2059   -1.0837   60.6277 H       1  ZINC000854704989    0.0700
     35 H35        -8.7624   -1.6547   58.8882 H       1  ZINC000854704989    0.0500
     36 H36        -8.7626   -1.4212   60.6530 H       1  ZINC000854704989    0.1000
     37 H37       -10.5497   -4.8095   59.1198 H       1  ZINC000854704989    0.1000
     38 H38        -9.8161   -3.6509   57.9846 H       1  ZINC000854704989    0.0500
     39 H39       -10.9965   -3.0379   56.1718 H       1  ZINC000854704989    0.1400
@<TRIPOS>BOND
     1     1     2    2
     2     2     3   am
     3     2    11    1
     4     3     4    1
     5     3    24    1
     6     4     5    1
     7     4    25    1
     8     4    26    1
     9     5    10    1
    10     5     6    2
    11     6     7    1
    12     6    27    1
    13     7     8    1
    14     7     9    2
    15     9    10    1
    16    11    23   ar
    17    11    12   ar
    18    12    13   ar
    19    12    28    1
    20    13    14   ar
    21    13    29    1
    22    14    15   ar
    23    14    30    1
    24    15    16    1
    25    15    23   ar
    26    16    17    1
    27    16    22    1
    28    16    18    1
    29    18    19    1
    30    18    31    1
    31    18    32    1
    32    19    20    1
    33    19    33    1
    34    19    34    1
    35    20    21    1
    36    20    35    1
    37    20    36    1
    38    21    22    1
    39    22    37    1
    40    22    38    1
    41    23    39    1
@<TRIPOS>SUBSTRUCTURE
     1 ZINC000854704989        1 TEMP              0 ****  ****    0 ROOT


##########                                Name:    ZINC000536173632
##########                DOCK_Rotatable_Bonds:                   7
##########                         Heavy_Atoms:                  29
##########                    Molecular_Weight:             407.389
##########                DOCK_Rotatable_Bonds:                   7
##########                       Formal_Charge:        -2.98023e-07
##########                     HBond_Acceptors:                   8
##########                        HBond_Donors:                   0
##########                         Heavy_Atoms:                  29
##########                          Grid_Score:          -34.288719
##########                     Grid_vdw_energy:          -34.648499
##########                      Grid_es_energy:            0.359781
##########           Internal_energy_repulsive:           17.757185

@<TRIPOS>MOLECULE
ZINC000536173632
 49 51 1 0 0
SMALL
USER_CHARGES


@<TRIPOS>ATOM
      1 C1         -9.0578    1.8442   55.4899 C.3     1  ZINC000536173632    0.0400
      2 O2        -10.1077    0.9625   55.0114 O.3     1  ZINC000536173632   -0.3500
      3 C3         -9.8071    0.1622   53.9705 C.2     1  ZINC000536173632    0.5100
      4 O4         -8.7145    0.2345   53.4445 O.2     1  ZINC000536173632   -0.5000
      5 C5        -10.8061   -0.8033   53.4684 C.ar    1  ZINC000536173632   -0.1300
      6 C6        -10.5076   -1.6151   52.3725 C.ar    1  ZINC000536173632   -0.0600
      7 C7        -11.4452   -2.5146   51.9087 C.ar    1  ZINC000536173632   -0.1300
      8 C8        -12.6791   -2.6129   52.5268 C.ar    1  ZINC000536173632   -0.0700
      9 C9        -12.9815   -1.8113   53.6135 C.ar    1  ZINC000536173632   -0.0800
     10 C10       -14.3282   -1.9255   54.2803 C.3     1  ZINC000536173632   -0.1000
     11 C11       -14.7221   -3.3772   54.3714 C.2     1  ZINC000536173632    0.5200
     12 O12       -15.6339   -3.8019   53.6937 O.2     1  ZINC000536173632   -0.5200
     13 N13       -14.0612   -4.2036   55.2061 N.am    1  ZINC000536173632   -0.6200
     14 C14       -14.4275   -5.6249   55.3123 C.3     1  ZINC000536173632    0.0700
     15 C15       -14.6059   -5.9687   56.7955 C.3     1  ZINC000536173632    0.0500
     16 O16       -13.4424   -5.5574   57.5172 O.3     1  ZINC000536173632   -0.3700
     17 C17       -13.2017   -4.1485   57.4858 C.3     1  ZINC000536173632    0.1200
     18 H18       -14.0708   -3.6218   57.8799 H       1  ZINC000536173632    0.0800
     19 C19       -11.9932   -3.8254   58.3261 C.ar    1  ZINC000536173632   -0.0900
     20 C20       -10.8555   -4.6039   58.2286 C.ar    1  ZINC000536173632   -0.0600
     21 C21        -9.7468   -4.3075   58.9996 C.ar    1  ZINC000536173632   -0.1200
     22 C22        -9.7762   -3.2323   59.8676 C.ar    1  ZINC000536173632   -0.0700
     23 C23       -10.9140   -2.4529   59.9645 C.ar    1  ZINC000536173632   -0.1800
     24 C24       -10.9462   -1.2808   60.9112 C.3     1  ZINC000536173632    0.5100
     25 F25       -12.1927   -1.2265   61.5438 F       1  ZINC000536173632   -0.1800
     26 F26        -9.9412   -1.4304   61.8729 F       1  ZINC000536173632   -0.1800
     27 F27       -10.7344   -0.0974   60.1957 F       1  ZINC000536173632   -0.1800
     28 C28       -12.0207   -2.7466   59.1906 C.ar    1  ZINC000536173632   -0.0500
     29 C29       -12.9478   -3.7128   56.0337 C.3     1  ZINC000536173632    0.0900
     30 C30       -12.0511   -0.9122   54.0913 C.ar    1  ZINC000536173632   -0.0400
     31 H31        -8.2039    1.2495   55.8146 H       1  ZINC000536173632    0.0600
     32 H32        -8.7503    2.5127   54.6857 H       1  ZINC000536173632    0.0600
     33 H33        -9.4311    2.4321   56.3284 H       1  ZINC000536173632    0.1000
     34 H34        -9.5450   -1.5388   51.8887 H       1  ZINC000536173632    0.1400
     35 H35       -11.2156   -3.1433   51.0610 H       1  ZINC000536173632    0.1400
     36 H36       -13.4097   -3.3183   52.1592 H       1  ZINC000536173632    0.1300
     37 H37       -14.2747   -1.4999   55.2824 H       1  ZINC000536173632    0.1100
     38 H38       -15.0707   -1.3836   53.6945 H       1  ZINC000536173632    0.1100
     39 H39       -15.3612   -5.8041   54.7790 H       1  ZINC000536173632    0.1000
     40 H40       -13.6362   -6.2408   54.8852 H       1  ZINC000536173632    0.0800
     41 H41       -15.4801   -5.4486   57.1872 H       1  ZINC000536173632    0.0600
     42 H42       -14.7415   -7.0445   56.9061 H       1  ZINC000536173632    0.1100
     43 H43       -10.8326   -5.4440   57.5504 H       1  ZINC000536173632    0.1400
     44 H44        -8.8580   -4.9163   58.9239 H       1  ZINC000536173632    0.1400
     45 H45        -8.9103   -3.0011   60.4704 H       1  ZINC000536173632    0.1400
     46 H46       -12.9096   -2.1378   59.2662 H       1  ZINC000536173632    0.1400
     47 H47       -12.0072   -4.1368   55.6823 H       1  ZINC000536173632    0.0800
     48 H48       -12.9037   -2.6250   55.9792 H       1  ZINC000536173632    0.1100
     49 H49       -12.2883   -0.2874   54.9397 H       1  ZINC000536173632    0.1400
@<TRIPOS>BOND
     1     1     2    1
     2     1    31    1
     3     1    32    1
     4     1    33    1
     5     2     3    1
     6     3     4    2
     7     3     5    1
     8     5    30   ar
     9     5     6   ar
    10     6     7   ar
    11     6    34    1
    12     7     8   ar
    13     7    35    1
    14     8     9   ar
    15     8    36    1
    16     9    10    1
    17     9    30   ar
    18    10    11    1
    19    10    37    1
    20    10    38    1
    21    11    12    2
    22    11    13   am
    23    13    29    1
    24    13    14    1
    25    14    15    1
    26    14    39    1
    27    14    40    1
    28    15    16    1
    29    15    41    1
    30    15    42    1
    31    16    17    1
    32    17    18    1
    33    17    19    1
    34    17    29    1
    35    19    28   ar
    36    19    20   ar
    37    20    21   ar
    38    20    43    1
    39    21    22   ar
    40    21    44    1
    41    22    23   ar
    42    22    45    1
    43    23    24    1
    44    23    28   ar
    45    24    25    1
    46    24    26    1
    47    24    27    1
    48    28    46    1
    49    29    47    1
    50    29    48    1
    51    30    49    1
@<TRIPOS>SUBSTRUCTURE
     1 ZINC000536173632        1 TEMP              0 ****  ****    0 ROOT


##########                                Name:    ZINC000864477301
##########                DOCK_Rotatable_Bonds:                   6
##########                         Heavy_Atoms:                  26
##########                    Molecular_Weight:             393.891
##########                DOCK_Rotatable_Bonds:                   6
##########                       Formal_Charge:         -0.00999978
##########                     HBond_Acceptors:                   7
##########                        HBond_Donors:                   1
##########                         Heavy_Atoms:                  26
##########                          Grid_Score:          -34.288044
##########                     Grid_vdw_energy:          -34.304447
##########                      Grid_es_energy:            0.016404
##########           Internal_energy_repulsive:           13.636289

@<TRIPOS>MOLECULE
ZINC000864477301
 46 47 1 0 0
SMALL
USER_CHARGES


@<TRIPOS>ATOM
      1 C1         -7.0592    0.1179   50.4764 C.3     1  ZINC000864477301   -0.1500
      2 C2         -6.4245    1.4094   50.9957 C.3     1  ZINC000864477301    0.0600
      3 O3         -5.1830    1.6583   50.2852 O.3     1  ZINC000864477301   -0.3500
      4 C4         -4.1836    2.2324   50.9826 C.2     1  ZINC000864477301    0.5100
      5 O5         -4.1955    2.2031   52.1969 O.2     1  ZINC000864477301   -0.5000
      6 C6         -3.0732    2.8975   50.2707 C.ar    1  ZINC000864477301   -0.1400
      7 C7         -2.1277    3.6380   50.9826 C.ar    1  ZINC000864477301   -0.0300
      8 C8         -1.0932    4.2568   50.3113 C.ar    1  ZINC000864477301   -0.1500
      9 C9         -0.9918    4.1451   48.9362 C.ar    1  ZINC000864477301   -0.0100
     10 C10        -1.9256    3.4126   48.2244 C.ar    1  ZINC000864477301   -0.4900
     11 S11        -1.7870    3.2770   46.4731 S.o     1  ZINC000864477301    1.3800
     12 O12        -3.1194    2.9946   46.0679 O.2     1  ZINC000864477301   -0.8100
     13 C13        -0.7628    1.7953   46.2584 C.3     1  ZINC000864477301   -0.4600
     14 H14         0.2312    1.9784   46.6664 H       1  ZINC000864477301    0.1400
     15 C15        -1.4073    0.6188   46.9941 C.3     1  ZINC000864477301   -0.1400
     16 C16        -0.6513    1.4699   44.7912 C.2     1  ZINC000864477301    0.5500
     17 O17        -1.5323    1.8041   44.0273 O.2     1  ZINC000864477301   -0.5100
     18 N18         0.4270    0.8076   44.3278 N.am    1  ZINC000864477301   -0.6800
     19 C19         0.5305    0.5054   42.9649 C.ar    1  ZINC000864477301    0.1400
     20 C20         1.5340    1.0824   42.1988 C.ar    1  ZINC000864477301   -0.0600
     21 C21         2.5137    2.0355   42.8334 C.3     1  ZINC000864477301   -0.1100
     22 C22         1.6340    0.7819   40.8539 C.ar    1  ZINC000864477301   -0.1100
     23 C23         0.7361   -0.0926   40.2704 C.ar    1  ZINC000864477301   -0.1000
     24 C24        -0.2654   -0.6694   41.0302 C.ar    1  ZINC000864477301   -0.1100
     25 C25        -0.3676   -0.3777   42.3770 C.ar    1  ZINC000864477301   -0.0200
     26 Cl26       -1.6244   -1.1022   43.3304 Cl      1  ZINC000864477301   -0.0600
     27 C27        -2.9613    2.7838   48.8833 C.ar    1  ZINC000864477301    0.0100
     28 H28        -7.2642    0.2168   49.4104 H       1  ZINC000864477301    0.0700
     29 H29        -6.3745   -0.7145   50.6390 H       1  ZINC000864477301    0.0700
     30 H30        -7.9913   -0.0690   51.0098 H       1  ZINC000864477301    0.0800
     31 H31        -7.1093    2.2417   50.8331 H       1  ZINC000864477301    0.0700
     32 H32        -6.2195    1.3105   52.0616 H       1  ZINC000864477301    0.0700
     33 H33        -2.2060    3.7266   52.0561 H       1  ZINC000864477301    0.1400
     34 H34        -0.3610    4.8300   50.8608 H       1  ZINC000864477301    0.1400
     35 H35        -0.1805    4.6321   48.4157 H       1  ZINC000864477301    0.1500
     36 H36        -0.7919   -0.2716   46.8651 H       1  ZINC000864477301    0.0700
     37 H37        -1.4879    0.8541   48.0554 H       1  ZINC000864477301    0.0700
     38 H38        -2.4014    0.4356   46.5861 H       1  ZINC000864477301    0.0700
     39 H39         1.1315    0.5402   44.9387 H       1  ZINC000864477301    0.4100
     40 H40         3.3721    1.4779   43.2083 H       1  ZINC000864477301    0.0800
     41 H41         2.8476    2.7608   42.0915 H       1  ZINC000864477301    0.0700
     42 H42         2.0303    2.5569   43.6595 H       1  ZINC000864477301    0.0700
     43 H43         2.4144    1.2310   40.2576 H       1  ZINC000864477301    0.1400
     44 H44         0.8168   -0.3256   39.2191 H       1  ZINC000864477301    0.1400
     45 H45        -0.9655   -1.3519   40.5713 H       1  ZINC000864477301    0.1400
     46 H46        -3.6892    2.2122   48.3268 H       1  ZINC000864477301    0.1400
@<TRIPOS>BOND
     1     1     2    1
     2     1    28    1
     3     1    29    1
     4     1    30    1
     5     2     3    1
     6     2    31    1
     7     2    32    1
     8     3     4    1
     9     4     5    2
    10     4     6    1
    11     6    27   ar
    12     6     7   ar
    13     7     8   ar
    14     7    33    1
    15     8     9   ar
    16     8    34    1
    17     9    10   ar
    18     9    35    1
    19    10    11    1
    20    10    27   ar
    21    11    12    2
    22    11    13    1
    23    13    14    1
    24    13    15    1
    25    13    16    1
    26    15    36    1
    27    15    37    1
    28    15    38    1
    29    16    17    2
    30    16    18   am
    31    18    19    1
    32    18    39    1
    33    19    25   ar
    34    19    20   ar
    35    20    21    1
    36    20    22   ar
    37    21    40    1
    38    21    41    1
    39    21    42    1
    40    22    23   ar
    41    22    43    1
    42    23    24   ar
    43    23    44    1
    44    24    25   ar
    45    24    45    1
    46    25    26    1
    47    27    46    1
@<TRIPOS>SUBSTRUCTURE
     1 ZINC000864477301        1 TEMP              0 ****  ****    0 ROOT


##########                                Name:    ZINC000817655807
##########                DOCK_Rotatable_Bonds:                   3
##########                         Heavy_Atoms:                  24
##########                    Molecular_Weight:             352.774
##########                DOCK_Rotatable_Bonds:                   3
##########                       Formal_Charge:         3.35276e-07
##########                     HBond_Acceptors:                   8
##########                        HBond_Donors:                   0
##########                         Heavy_Atoms:                  24
##########                          Grid_Score:          -34.284397
##########                     Grid_vdw_energy:          -33.485897
##########                      Grid_es_energy:           -0.798500
##########           Internal_energy_repulsive:            3.337886

@<TRIPOS>MOLECULE
ZINC000817655807
 41 44 1 0 0
SMALL
USER_CHARGES


@<TRIPOS>ATOM
      1 C1         -9.3667    0.4620   54.1976 C.3     1  ZINC000817655807    0.1100
      2 N2        -10.0707   -0.7275   53.7118 N.am    1  ZINC000817655807   -0.6400
      3 C3        -11.1856   -1.4044   54.3984 C.3     1  ZINC000817655807    0.1000
      4 C4        -11.5265   -2.5635   53.4574 C.3     1  ZINC000817655807    0.0500
      5 C5        -11.6268   -3.9423   54.1101 C.3     1  ZINC000817655807    0.1200
      6 N6        -13.0759   -3.6693   54.2093 N.am    1  ZINC000817655807   -0.6500
      7 C7        -14.0676   -4.1174   55.0044 C.2     1  ZINC000817655807    0.5500
      8 O8        -15.1986   -3.7065   54.8531 O.2     1  ZINC000817655807   -0.5100
      9 C9        -13.7710   -5.1291   56.0813 C.3     1  ZINC000817655807   -0.0900
     10 C10       -13.1034   -4.4428   57.2451 C.ar    1  ZINC000817655807   -0.0600
     11 C11       -13.8272   -3.5772   58.0431 C.ar    1  ZINC000817655807   -0.0900
     12 C12       -13.2170   -2.9439   59.1109 C.ar    1  ZINC000817655807   -0.0300
     13 Cl13      -14.1291   -1.8568   60.1110 Cl      1  ZINC000817655807   -0.0500
     14 C14       -11.8767   -3.1772   59.3835 C.ar    1  ZINC000817655807    0.0600
     15 O15       -11.2874   -2.5408   60.4328 O.3     1  ZINC000817655807   -0.2900
     16 C16       -10.0464   -3.0819   60.8989 C.3     1  ZINC000817655807    0.0200
     17 C17        -9.1567   -3.3629   59.6805 C.3     1  ZINC000817655807    0.0200
     18 O18        -9.8362   -4.2977   58.8352 O.3     1  ZINC000817655807   -0.3000
     19 C19       -11.1507   -4.0507   58.5827 C.ar    1  ZINC000817655807    0.0600
     20 C20       -11.7696   -4.6848   57.5158 C.ar    1  ZINC000817655807   -0.0900
     21 C21       -13.0031   -2.7082   53.0889 C.3     1  ZINC000817655807    0.1100
     22 O22       -10.5985   -2.4402   52.3550 O.3     1  ZINC000817655807   -0.3000
     23 C23        -9.8101   -1.3755   52.5662 C.2     1  ZINC000817655807    0.6400
     24 O24        -8.9354   -1.0340   51.7949 O.2     1  ZINC000817655807   -0.5100
     25 H25        -8.5931    0.7434   53.4832 H       1  ZINC000817655807    0.0900
     26 H26       -10.0748    1.2833   54.3086 H       1  ZINC000817655807    0.0700
     27 H27        -8.9086    0.2443   55.1625 H       1  ZINC000817655807    0.0700
     28 H28       -10.8671   -1.7796   55.3710 H       1  ZINC000817655807    0.1000
     29 H29       -12.0369   -0.7321   54.5044 H       1  ZINC000817655807    0.1000
     30 H30       -11.3788   -4.7656   53.4401 H       1  ZINC000817655807    0.1100
     31 H31       -11.1245   -4.0103   55.0750 H       1  ZINC000817655807    0.1000
     32 H32       -14.7017   -5.5878   56.4151 H       1  ZINC000817655807    0.1100
     33 H33       -13.1086   -5.8984   55.6845 H       1  ZINC000817655807    0.1100
     34 H34       -14.8706   -3.3947   57.8326 H       1  ZINC000817655807    0.1400
     35 H35        -9.5553   -2.3631   61.5547 H       1  ZINC000817655807    0.1300
     36 H36       -10.2304   -4.0093   61.4413 H       1  ZINC000817655807    0.0800
     37 H37        -8.9775   -2.4366   59.1346 H       1  ZINC000817655807    0.0800
     38 H38        -8.2074   -3.7866   60.0083 H       1  ZINC000817655807    0.1300
     39 H39       -11.2078   -5.3656   56.8935 H       1  ZINC000817655807    0.1400
     40 H40       -13.5874   -1.8018   53.2478 H       1  ZINC000817655807    0.1000
     41 H41       -13.1707   -3.1588   52.1107 H       1  ZINC000817655807    0.1100
@<TRIPOS>BOND
     1     1     2    1
     2     1    25    1
     3     1    26    1
     4     1    27    1
     5     2    23   am
     6     2     3    1
     7     3     4    1
     8     3    28    1
     9     3    29    1
    10     4    21    1
    11     4     5    1
    12     4    22    1
    13     5     6    1
    14     5    30    1
    15     5    31    1
    16     6     7   am
    17     6    21    1
    18     7     8    2
    19     7     9    1
    20     9    10    1
    21     9    32    1
    22     9    33    1
    23    10    20   ar
    24    10    11   ar
    25    11    12   ar
    26    11    34    1
    27    12    13    1
    28    12    14   ar
    29    14    19   ar
    30    14    15    1
    31    15    16    1
    32    16    17    1
    33    16    35    1
    34    16    36    1
    35    17    18    1
    36    17    37    1
    37    17    38    1
    38    18    19    1
    39    19    20   ar
    40    20    39    1
    41    21    40    1
    42    21    41    1
    43    22    23    1
    44    23    24    2
@<TRIPOS>SUBSTRUCTURE
     1 ZINC000817655807        1 TEMP              0 ****  ****    0 ROOT


##########                                Name:    ZINC000426567005
##########                DOCK_Rotatable_Bonds:                   9
##########                         Heavy_Atoms:                  31
##########                    Molecular_Weight:             417.467
##########                DOCK_Rotatable_Bonds:                   9
##########                       Formal_Charge:        -2.23517e-07
##########                     HBond_Acceptors:                   8
##########                        HBond_Donors:                   4
##########                         Heavy_Atoms:                  31
##########                          Grid_Score:          -34.268192
##########                     Grid_vdw_energy:          -33.430305
##########                      Grid_es_energy:           -0.837886
##########           Internal_energy_repulsive:           15.834258

@<TRIPOS>MOLECULE
ZINC000426567005
 54 57 1 0 0
SMALL
USER_CHARGES


@<TRIPOS>ATOM
      1 O1         -9.3363   -2.3283   60.8928 O.2     1  ZINC000426567005   -0.4900
      2 C2         -9.8892   -1.3942   60.3494 C.2     1  ZINC000426567005    0.5200
      3 N3        -10.1797   -0.2815   61.0523 N.am    1  ZINC000426567005   -0.6000
      4 C4         -9.8492   -0.2053   62.4098 C.2     1  ZINC000426567005    0.3000
      5 N5         -9.3320   -1.1711   63.1331 N.2     1  ZINC000426567005   -0.3100
      6 N6         -9.1522   -0.6918   64.4369 N.pl3   1  ZINC000426567005   -0.4600
      7 C7         -9.5766    0.5891   64.4741 C.2     1  ZINC000426567005    0.1100
      8 C8         -9.5656    1.4926   65.6802 C.3     1  ZINC000426567005   -0.0300
      9 C9         -9.6010    0.6571   66.9839 C.3     1  ZINC000426567005   -0.1200
     10 C10        -8.9868    1.6241   68.0263 C.3     1  ZINC000426567005   -0.1300
     11 C11        -7.8656    2.3501   67.2545 C.3     1  ZINC000426567005   -0.1300
     12 C12        -8.2336    2.2666   65.7628 C.3     1  ZINC000426567005   -0.1200
     13 C13       -10.0072    0.9198   63.2358 C.2     1  ZINC000426567005   -0.2600
     14 C14       -10.2418   -1.4754   58.9014 C.2     1  ZINC000426567005    0.5200
     15 O15       -10.2018   -2.5434   58.3260 O.2     1  ZINC000426567005   -0.4900
     16 N16       -10.6043   -0.3629   58.2326 N.am    1  ZINC000426567005   -0.6400
     17 C17       -10.9333   -0.4387   56.8814 C.ar    1  ZINC000426567005    0.1700
     18 C18       -10.2275    0.3188   55.9513 C.ar    1  ZINC000426567005   -0.1300
     19 C19       -10.5501    0.2461   54.6151 C.ar    1  ZINC000426567005   -0.0300
     20 C20       -11.5874   -0.5899   54.1927 C.ar    1  ZINC000426567005   -0.1500
     21 C21       -11.9357   -0.6707   52.7608 C.2     1  ZINC000426567005    0.5600
     22 O22       -11.1304   -1.1111   51.9633 O.2     1  ZINC000426567005   -0.5100
     23 N23       -13.1462   -0.2562   52.3373 N.am    1  ZINC000426567005   -0.6700
     24 C24       -13.4761   -0.3327   50.9805 C.ar    1  ZINC000426567005    0.1400
     25 C25       -13.6371   -1.5709   50.3722 C.ar    1  ZINC000426567005   -0.1500
     26 C26       -13.9636   -1.6431   49.0321 C.ar    1  ZINC000426567005   -0.1000
     27 C27       -14.1300   -0.4842   48.2962 C.ar    1  ZINC000426567005   -0.1300
     28 C28       -13.9700    0.7502   48.8987 C.ar    1  ZINC000426567005   -0.1000
     29 C29       -13.6493    0.8293   50.2397 C.ar    1  ZINC000426567005   -0.1200
     30 C30       -12.2940   -1.3497   55.1291 C.ar    1  ZINC000426567005   -0.0600
     31 C31       -11.9633   -1.2762   56.4634 C.ar    1  ZINC000426567005   -0.1400
     32 H32       -10.6178    0.4666   60.6171 H       1  ZINC000426567005    0.4300
     33 H33        -8.7865   -1.1927   65.1828 H       1  ZINC000426567005    0.4400
     34 H34       -10.4072    2.1845   65.6451 H       1  ZINC000426567005    0.1100
     35 H35       -10.6263    0.4014   67.2511 H       1  ZINC000426567005    0.0800
     36 H36        -8.9912   -0.2408   66.8838 H       1  ZINC000426567005    0.0700
     37 H37        -9.7350    2.3371   68.3726 H       1  ZINC000426567005    0.0700
     38 H38        -8.5725    1.0665   68.8663 H       1  ZINC000426567005    0.0700
     39 H39        -7.8113    3.3927   67.5678 H       1  ZINC000426567005    0.0700
     40 H40        -6.9102    1.8563   67.4316 H       1  ZINC000426567005    0.0700
     41 H41        -7.4568    1.7321   65.2160 H       1  ZINC000426567005    0.0600
     42 H42        -8.3579    3.2685   65.3521 H       1  ZINC000426567005    0.0700
     43 H43       -10.4081    1.8768   62.9365 H       1  ZINC000426567005    0.1700
     44 H44       -10.6362    0.4907   58.6924 H       1  ZINC000426567005    0.4300
     45 H45        -9.4260    0.9646   56.2783 H       1  ZINC000426567005    0.1500
     46 H46       -10.0026    0.8347   53.8939 H       1  ZINC000426567005    0.1400
     47 H47       -13.7885    0.0952   52.9736 H       1  ZINC000426567005    0.4100
     48 H48       -13.5069   -2.4763   50.9463 H       1  ZINC000426567005    0.1300
     49 H49       -14.0884   -2.6055   48.5584 H       1  ZINC000426567005    0.1300
     50 H50       -14.3853   -0.5433   47.2484 H       1  ZINC000426567005    0.1200
     51 H51       -14.1001    1.6533   48.3210 H       1  ZINC000426567005    0.1300
     52 H52       -13.5248    1.7936   50.7098 H       1  ZINC000426567005    0.1300
     53 H53       -13.0963   -1.9964   54.8060 H       1  ZINC000426567005    0.1300
     54 H54       -12.5089   -1.8630   57.1876 H       1  ZINC000426567005    0.1400
@<TRIPOS>BOND
     1     1     2    2
     2     2     3   am
     3     2    14    1
     4     3     4    1
     5     3    32    1
     6     4    13    1
     7     4     5    2
     8     5     6    1
     9     6     7    1
    10     6    33    1
    11     7     8    1
    12     7    13    2
    13     8    12    1
    14     8     9    1
    15     8    34    1
    16     9    10    1
    17     9    35    1
    18     9    36    1
    19    10    11    1
    20    10    37    1
    21    10    38    1
    22    11    12    1
    23    11    39    1
    24    11    40    1
    25    12    41    1
    26    12    42    1
    27    13    43    1
    28    14    15    2
    29    14    16   am
    30    16    17    1
    31    16    44    1
    32    17    31   ar
    33    17    18   ar
    34    18    19   ar
    35    18    45    1
    36    19    20   ar
    37    19    46    1
    38    20    21    1
    39    20    30   ar
    40    21    22    2
    41    21    23   am
    42    23    24    1
    43    23    47    1
    44    24    29   ar
    45    24    25   ar
    46    25    26   ar
    47    25    48    1
    48    26    27   ar
    49    26    49    1
    50    27    28   ar
    51    27    50    1
    52    28    29   ar
    53    28    51    1
    54    29    52    1
    55    30    31   ar
    56    30    53    1
    57    31    54    1
@<TRIPOS>SUBSTRUCTURE
     1 ZINC000426567005        1 TEMP              0 ****  ****    0 ROOT


##########                                Name:    ZINC000269356812
##########                DOCK_Rotatable_Bonds:                  10
##########                         Heavy_Atoms:                  25
##########                    Molecular_Weight:             387.431
##########                DOCK_Rotatable_Bonds:                  10
##########                       Formal_Charge:          0.00999978
##########                     HBond_Acceptors:                  10
##########                        HBond_Donors:                   3
##########                         Heavy_Atoms:                  25
##########                          Grid_Score:          -34.252209
##########                     Grid_vdw_energy:          -32.148357
##########                      Grid_es_energy:           -2.103851
##########           Internal_energy_repulsive:            6.971434

@<TRIPOS>MOLECULE
ZINC000269356812
 40 41 1 0 0
SMALL
USER_CHARGES


@<TRIPOS>ATOM
      1 C1        -14.2276   -5.2781   55.1673 C.3     1  ZINC000269356812   -0.1400
      2 C2        -14.0322   -4.7267   56.5810 C.3     1  ZINC000269356812    0.2000
      3 O3        -14.1249   -5.7947   57.5259 O.3     1  ZINC000269356812   -0.5400
      4 C4        -12.6540   -4.0707   56.6865 C.3     1  ZINC000269356812    0.0900
      5 N5        -12.5284   -3.4043   57.9850 N.am    1  ZINC000269356812   -0.6900
      6 C6        -11.3422   -2.8911   58.3672 C.2     1  ZINC000269356812    0.5100
      7 O7        -10.3777   -2.9824   57.6363 O.2     1  ZINC000269356812   -0.5100
      8 C8        -11.2147   -2.2102   59.6901 C.2     1  ZINC000269356812    0.5100
      9 O9        -12.1138   -2.2882   60.5020 O.2     1  ZINC000269356812   -0.4900
     10 N10       -10.1016   -1.5089   59.9825 N.am    1  ZINC000269356812   -0.6400
     11 C11        -9.9820   -0.8708   61.2220 C.ar    1  ZINC000269356812    0.0900
     12 C12       -10.4839    0.4176   61.4040 C.ar    1  ZINC000269356812   -0.0600
     13 C13       -10.3444    1.0094   62.6453 C.ar    1  ZINC000269356812   -0.1200
     14 C14        -9.7120    0.3051   63.6654 C.ar    1  ZINC000269356812    0.1000
     15 S15        -9.5282    1.0478   65.2526 S.3     1  ZINC000269356812   -0.0600
     16 C16        -8.1175    0.1539   65.9606 C.3     1  ZINC000269356812    0.2900
     17 F17        -7.6128    0.8686   67.0523 F       1  ZINC000269356812   -0.1700
     18 F18        -8.5332   -1.1129   66.3845 F       1  ZINC000269356812   -0.1700
     19 N19        -9.2473   -0.9175   63.4568 N.ar    1  ZINC000269356812   -0.4600
     20 C20        -9.3680   -1.5145   62.2868 C.ar    1  ZINC000269356812    0.1100
     21 C21       -15.0992   -3.7035   56.8731 C.2     1  ZINC000269356812   -0.2300
     22 C22       -15.6413   -2.8798   55.9746 C.2     1  ZINC000269356812   -0.1100
     23 C23       -16.6066   -2.0236   56.4759 C.2     1  ZINC000269356812   -0.1400
     24 C24       -16.8486   -2.1521   57.7813 C.2     1  ZINC000269356812   -0.2000
     25 S25       -15.8260   -3.4178   58.4491 S.3     1  ZINC000269356812    0.1100
     26 H26       -15.2095   -5.7455   55.0921 H       1  ZINC000269356812    0.0800
     27 H27       -14.1569   -4.4635   54.4466 H       1  ZINC000269356812    0.0800
     28 H28       -13.4559   -6.0183   54.9560 H       1  ZINC000269356812    0.0700
     29 H29       -14.9290   -6.3253   57.4421 H       1  ZINC000269356812    0.3800
     30 H30       -11.8806   -4.8332   56.5931 H       1  ZINC000269356812    0.0900
     31 H31       -12.5389   -3.3369   55.8888 H       1  ZINC000269356812    0.0900
     32 H32       -13.2990   -3.3323   58.5698 H       1  ZINC000269356812    0.4200
     33 H33        -9.3832   -1.4464   59.3335 H       1  ZINC000269356812    0.4300
     34 H34       -10.9700    0.9409   60.5938 H       1  ZINC000269356812    0.1600
     35 H35       -10.7210    2.0063   62.8212 H       1  ZINC000269356812    0.1500
     36 H36        -7.3390    0.0469   65.2052 H       1  ZINC000269356812    0.1500
     37 H37        -8.9766   -2.5123   62.1536 H       1  ZINC000269356812    0.1700
     38 H38       -15.3487   -2.8805   54.9350 H       1  ZINC000269356812    0.1500
     39 H39       -17.1243   -1.3058   55.8569 H       1  ZINC000269356812    0.1400
     40 H40       -17.5654   -1.5704   58.3418 H       1  ZINC000269356812    0.1700
@<TRIPOS>BOND
     1     1     2    1
     2     1    26    1
     3     1    27    1
     4     1    28    1
     5     2     3    1
     6     2     4    1
     7     2    21    1
     8     3    29    1
     9     4     5    1
    10     4    30    1
    11     4    31    1
    12     5     6   am
    13     5    32    1
    14     6     7    2
    15     6     8    1
    16     8     9    2
    17     8    10   am
    18    10    11    1
    19    10    33    1
    20    11    20   ar
    21    11    12   ar
    22    12    13   ar
    23    12    34    1
    24    13    14   ar
    25    13    35    1
    26    14    15    1
    27    14    19   ar
    28    15    16    1
    29    16    17    1
    30    16    18    1
    31    16    36    1
    32    19    20   ar
    33    20    37    1
    34    21    25    1
    35    21    22    2
    36    22    23    1
    37    22    38    1
    38    23    24    2
    39    23    39    1
    40    24    25    1
    41    24    40    1
@<TRIPOS>SUBSTRUCTURE
     1 ZINC000269356812        1 TEMP              0 ****  ****    0 ROOT


##########                                Name:    ZINC001300804061
##########                DOCK_Rotatable_Bonds:                   5
##########                         Heavy_Atoms:                  27
##########                    Molecular_Weight:              390.55
##########                DOCK_Rotatable_Bonds:                   5
##########                       Formal_Charge:                0.01
##########                     HBond_Acceptors:                   7
##########                        HBond_Donors:                   0
##########                         Heavy_Atoms:                  27
##########                          Grid_Score:          -34.243210
##########                     Grid_vdw_energy:          -33.201157
##########                      Grid_es_energy:           -1.042055
##########           Internal_energy_repulsive:           10.940464

@<TRIPOS>MOLECULE
ZINC001300804061
 57 60 1 0 0
SMALL
USER_CHARGES


@<TRIPOS>ATOM
      1 C1        -11.1372   -3.3007   52.9156 C.3     1  ZINC001300804061    0.0300
      2 O2        -11.4060   -4.1753   54.0133 O.3     1  ZINC001300804061   -0.3800
      3 C3        -12.1765   -3.5774   55.0577 C.3     1  ZINC001300804061    0.1000
      4 H4        -12.3972   -2.5416   54.7998 H       1  ZINC001300804061    0.0700
      5 C5        -11.3839   -3.6205   56.3660 C.3     1  ZINC001300804061    0.0500
      6 N6        -12.1837   -3.0252   57.4442 N.3     1  ZINC001300804061   -0.4600
      7 C7        -11.4477   -2.9293   58.6130 C.2     1  ZINC001300804061    0.3600
      8 N8        -10.5908   -3.8142   59.0682 N.2     1  ZINC001300804061   -0.3000
      9 N9        -10.0846   -3.4103   60.1781 N.2     1  ZINC001300804061   -0.2500
     10 C10       -10.5888   -2.2393   60.5006 C.2     1  ZINC001300804061    0.2600
     11 C11       -10.2646   -1.4462   61.6967 C.2     1  ZINC001300804061    0.0400
     12 C12        -9.1869   -1.6292   62.5102 C.2     1  ZINC001300804061   -0.1300
     13 C13        -9.2731   -0.6540   63.5225 C.2     1  ZINC001300804061   -0.2100
     14 C14       -10.3850    0.0689   63.2820 C.2     1  ZINC001300804061    0.0100
     15 C15       -10.8774    1.2253   64.1135 C.3     1  ZINC001300804061   -0.0800
     16 O16       -10.9785   -0.4082   62.1754 O.3     1  ZINC001300804061   -0.1700
     17 N17       -11.4739   -1.8938   59.5034 N.pl3   1  ZINC001300804061   -0.4600
     18 C18       -12.2812   -0.6742   59.4197 C.3     1  ZINC001300804061    0.1200
     19 C19       -11.3711    0.5210   59.1299 C.3     1  ZINC001300804061   -0.1000
     20 H20       -10.6599    0.6408   59.9473 H       1  ZINC001300804061    0.0900
     21 C21       -12.2178    1.7843   59.0060 C.3     1  ZINC001300804061   -0.1200
     22 C22       -11.3332    3.0272   58.9838 C.3     1  ZINC001300804061   -0.1200
     23 C23       -10.5646    3.0981   57.6617 C.3     1  ZINC001300804061   -0.0800
     24 S24        -9.4626    1.6575   57.5455 S.3     1  ZINC001300804061   -0.2600
     25 C25       -10.6091    0.2750   57.8250 C.3     1  ZINC001300804061   -0.0700
     26 C26       -13.4241   -3.7797   57.6638 C.3     1  ZINC001300804061    0.0600
     27 C27       -14.2777   -3.7414   56.3942 C.3     1  ZINC001300804061   -0.1100
     28 C28       -13.4864   -4.3506   55.2335 C.3     1  ZINC001300804061   -0.0900
     29 H29       -13.2651   -5.3954   55.4521 H       1  ZINC001300804061    0.0800
     30 C30       -14.3124   -4.2611   53.9488 C.3     1  ZINC001300804061   -0.1400
     31 H31       -12.0781   -2.9725   52.4737 H       1  ZINC001300804061    0.0400
     32 H32       -10.5802   -2.4335   53.2700 H       1  ZINC001300804061    0.0400
     33 H33       -10.5485   -3.8291   52.1657 H       1  ZINC001300804061    0.0900
     34 H34       -11.1511   -4.6557   56.6158 H       1  ZINC001300804061    0.0700
     35 H35       -10.4575   -3.0583   56.2482 H       1  ZINC001300804061    0.0800
     36 H36        -8.4161   -2.3776   62.4002 H       1  ZINC001300804061    0.1600
     37 H37        -8.5791   -0.5121   64.3377 H       1  ZINC001300804061    0.1600
     38 H38       -10.4488    2.1534   63.7350 H       1  ZINC001300804061    0.0900
     39 H39       -11.9647    1.2772   64.0560 H       1  ZINC001300804061    0.0800
     40 H40       -10.5748    1.0819   65.1508 H       1  ZINC001300804061    0.0900
     41 H41       -13.0124   -0.7768   58.6179 H       1  ZINC001300804061    0.1100
     42 H42       -12.7991   -0.5156   60.3657 H       1  ZINC001300804061    0.1000
     43 H43       -12.7967    1.7392   58.0836 H       1  ZINC001300804061    0.0700
     44 H44       -12.8997    1.8440   59.8543 H       1  ZINC001300804061    0.0800
     45 H45       -11.9553    3.9161   59.0889 H       1  ZINC001300804061    0.0800
     46 H46       -10.6257    2.9827   59.8118 H       1  ZINC001300804061    0.0800
     47 H47       -11.2681    3.0879   56.8293 H       1  ZINC001300804061    0.0800
     48 H48        -9.9734    4.0135   57.6315 H       1  ZINC001300804061    0.1100
     49 H49       -10.0469   -0.6556   57.9025 H       1  ZINC001300804061    0.1000
     50 H50       -11.3129    0.2108   56.9953 H       1  ZINC001300804061    0.0900
     51 H51       -13.1818   -4.8141   57.9074 H       1  ZINC001300804061    0.0600
     52 H52       -13.9797   -3.3331   58.4885 H       1  ZINC001300804061    0.0800
     53 H53       -15.1912   -4.3146   56.5523 H       1  ZINC001300804061    0.0800
     54 H54       -14.5321   -2.7082   56.1577 H       1  ZINC001300804061    0.0800
     55 H55       -14.5312   -3.2160   53.7297 H       1  ZINC001300804061    0.0500
     56 H56       -13.7484   -4.6950   53.1232 H       1  ZINC001300804061    0.0600
     57 H57       -15.2461   -4.8084   54.0782 H       1  ZINC001300804061    0.0600
@<TRIPOS>BOND
     1     1     2    1
     2     1    31    1
     3     1    32    1
     4     1    33    1
     5     2     3    1
     6     3     4    1
     7     3    28    1
     8     3     5    1
     9     5     6    1
    10     5    34    1
    11     5    35    1
    12     6     7    1
    13     6    26    1
    14     7    17    1
    15     7     8    2
    16     8     9    1
    17     9    10    2
    18    10    11    1
    19    10    17    1
    20    11    16    1
    21    11    12    2
    22    12    13    1
    23    12    36    1
    24    13    14    2
    25    13    37    1
    26    14    15    1
    27    14    16    1
    28    15    38    1
    29    15    39    1
    30    15    40    1
    31    17    18    1
    32    18    19    1
    33    18    41    1
    34    18    42    1
    35    19    20    1
    36    19    25    1
    37    19    21    1
    38    21    22    1
    39    21    43    1
    40    21    44    1
    41    22    23    1
    42    22    45    1
    43    22    46    1
    44    23    24    1
    45    23    47    1
    46    23    48    1
    47    24    25    1
    48    25    49    1
    49    25    50    1
    50    26    27    1
    51    26    51    1
    52    26    52    1
    53    27    28    1
    54    27    53    1
    55    27    54    1
    56    28    29    1
    57    28    30    1
    58    30    55    1
    59    30    56    1
    60    30    57    1
@<TRIPOS>SUBSTRUCTURE
     1 ZINC001300804061        1 TEMP              0 ****  ****    0 ROOT


##########                                Name:    ZINC000151303733
##########                DOCK_Rotatable_Bonds:                   7
##########                         Heavy_Atoms:                  26
##########                    Molecular_Weight:             369.444
##########                DOCK_Rotatable_Bonds:                   7
##########                       Formal_Charge:        -1.93715e-07
##########                     HBond_Acceptors:                   7
##########                        HBond_Donors:                   2
##########                         Heavy_Atoms:                  26
##########                          Grid_Score:          -34.222679
##########                     Grid_vdw_energy:          -33.750328
##########                      Grid_es_energy:           -0.472353
##########           Internal_energy_repulsive:            7.155036

@<TRIPOS>MOLECULE
ZINC000151303733
 45 48 1 0 0
SMALL
USER_CHARGES


@<TRIPOS>ATOM
      1 C1        -16.2280   -0.0773   60.0263 C.3     1  ZINC000151303733   -0.1000
      2 C2        -15.6975   -0.9322   61.1483 C.2     1  ZINC000151303733   -0.1200
      3 C3        -15.9162   -0.6473   62.4326 C.2     1  ZINC000151303733   -0.2000
      4 S4        -15.1487   -1.8605   63.4483 S.3     1  ZINC000151303733    0.1200
      5 C5        -14.5535   -2.7163   62.0319 C.2     1  ZINC000151303733   -0.2400
      6 C6        -14.9490   -2.0793   60.9236 C.2     1  ZINC000151303733    0.1200
      7 N7        -14.6231   -2.5315   59.6314 N.am    1  ZINC000151303733   -0.6400
      8 C8        -15.0846   -3.7211   59.1975 C.2     1  ZINC000151303733    0.5100
      9 O9        -15.7808   -4.4021   59.9208 O.2     1  ZINC000151303733   -0.5100
     10 C10       -14.7356   -4.2054   57.8137 C.3     1  ZINC000151303733    0.1000
     11 N11       -13.4406   -3.6493   57.4139 N.am    1  ZINC000151303733   -0.7100
     12 C12       -12.6484   -4.3307   56.5627 C.2     1  ZINC000151303733    0.5200
     13 O13       -13.0071   -5.4049   56.1288 O.2     1  ZINC000151303733   -0.5100
     14 C14       -11.3171   -3.7579   56.1500 C.3     1  ZINC000151303733    0.1600
     15 H15       -10.6933   -4.5377   55.7131 H       1  ZINC000151303733    0.1300
     16 C16       -10.6239   -3.1468   57.3420 C.ar    1  ZINC000151303733   -0.0900
     17 C17       -10.1856   -3.6577   58.5413 C.ar    1  ZINC000151303733   -0.0900
     18 C18        -9.5681   -2.8278   59.4625 C.ar    1  ZINC000151303733   -0.0800
     19 C19        -9.3906   -1.4852   59.1799 C.ar    1  ZINC000151303733   -0.1200
     20 C20        -9.8267   -0.9624   57.9797 C.ar    1  ZINC000151303733   -0.0400
     21 C21       -10.4498   -1.7924   57.0463 C.ar    1  ZINC000151303733   -0.1500
     22 C22       -11.0116   -1.5356   55.7065 C.2     1  ZINC000151303733    0.5600
     23 O23       -11.0196   -0.4538   55.1523 O.2     1  ZINC000151303733   -0.5100
     24 N24       -11.5136   -2.6698   55.1853 N.am    1  ZINC000151303733   -0.5700
     25 C25       -12.1510   -2.7966   53.8724 C.3     1  ZINC000151303733    0.0900
     26 C26       -11.3909   -2.2496   52.6623 C.3     1  ZINC000151303733   -0.1800
     27 C27       -11.5153   -3.7605   52.8685 C.3     1  ZINC000151303733   -0.1900
     28 H28       -17.2180   -0.4302   59.7375 H       1  ZINC000151303733    0.0700
     29 H29       -16.2942    0.9586   60.3589 H       1  ZINC000151303733    0.0700
     30 H30       -15.5554   -0.1421   59.1710 H       1  ZINC000151303733    0.0600
     31 H31       -16.4790    0.2006   62.7943 H       1  ZINC000151303733    0.1700
     32 H32       -13.9628   -3.6202   62.0532 H       1  ZINC000151303733    0.2000
     33 H33       -14.0664   -1.9871   59.0532 H       1  ZINC000151303733    0.4200
     34 H34       -14.6793   -5.2939   57.8132 H       1  ZINC000151303733    0.1100
     35 H35       -15.5029   -3.8809   57.1109 H       1  ZINC000151303733    0.1100
     36 H36       -13.1532   -2.7907   57.7619 H       1  ZINC000151303733    0.4100
     37 H37       -10.3230   -4.7053   58.7649 H       1  ZINC000151303733    0.1300
     38 H38        -9.2246   -3.2298   60.4042 H       1  ZINC000151303733    0.1400
     39 H39        -8.9088   -0.8431   59.9024 H       1  ZINC000151303733    0.1400
     40 H40        -9.6859    0.0862   57.7628 H       1  ZINC000151303733    0.1400
     41 H41       -13.2374   -2.7081   53.8666 H       1  ZINC000151303733    0.1400
     42 H42       -11.9773   -1.8011   51.8603 H       1  ZINC000151303733    0.1000
     43 H43       -10.4167   -1.7955   52.8432 H       1  ZINC000151303733    0.1300
     44 H44       -10.6230   -4.3005   53.1851 H       1  ZINC000151303733    0.1000
     45 H45       -12.1835   -4.3061   52.2022 H       1  ZINC000151303733    0.1000
@<TRIPOS>BOND
     1     1     2    1
     2     1    28    1
     3     1    29    1
     4     1    30    1
     5     2     6    1
     6     2     3    2
     7     3     4    1
     8     3    31    1
     9     4     5    1
    10     5     6    2
    11     5    32    1
    12     6     7    1
    13     7     8   am
    14     7    33    1
    15     8     9    2
    16     8    10    1
    17    10    11    1
    18    10    34    1
    19    10    35    1
    20    11    12   am
    21    11    36    1
    22    12    13    2
    23    12    14    1
    24    14    15    1
    25    14    24    1
    26    14    16    1
    27    16    21   ar
    28    16    17   ar
    29    17    18   ar
    30    17    37    1
    31    18    19   ar
    32    18    38    1
    33    19    20   ar
    34    19    39    1
    35    20    21   ar
    36    20    40    1
    37    21    22    1
    38    22    23    2
    39    22    24   am
    40    24    25    1
    41    25    27    1
    42    25    26    1
    43    25    41    1
    44    26    27    1
    45    26    42    1
    46    26    43    1
    47    27    44    1
    48    27    45    1
@<TRIPOS>SUBSTRUCTURE
     1 ZINC000151303733        1 TEMP              0 ****  ****    0 ROOT


##########                                Name:    ZINC000441887161
##########                DOCK_Rotatable_Bonds:                   6
##########                         Heavy_Atoms:                  27
##########                    Molecular_Weight:             383.514
##########                DOCK_Rotatable_Bonds:                   6
##########                       Formal_Charge:          -0.0300002
##########                     HBond_Acceptors:                   6
##########                        HBond_Donors:                   1
##########                         Heavy_Atoms:                  27
##########                          Grid_Score:          -34.219948
##########                     Grid_vdw_energy:          -33.959507
##########                      Grid_es_energy:           -0.260440
##########           Internal_energy_repulsive:           19.428545

@<TRIPOS>MOLECULE
ZINC000441887161
 52 54 1 0 0
SMALL
USER_CHARGES


@<TRIPOS>ATOM
      1 C1        -10.8178   -2.3312   52.3077 C.3     1  ZINC000441887161   -0.1200
      2 C2        -11.2708   -2.4094   53.7429 C.ar    1  ZINC000441887161   -0.0700
      3 C3        -11.2390   -3.6179   54.4127 C.ar    1  ZINC000441887161   -0.1200
      4 C4        -11.6545   -3.6896   55.7294 C.ar    1  ZINC000441887161   -0.0900
      5 C5        -12.1013   -2.5528   56.3760 C.ar    1  ZINC000441887161   -0.1100
      6 C6        -12.5546   -2.6310   57.8110 C.3     1  ZINC000441887161    0.1900
      7 H7        -12.4220   -1.6596   58.2875 H       1  ZINC000441887161    0.1000
      8 C8        -14.0324   -3.0247   57.8582 C.3     1  ZINC000441887161    0.1000
      9 N9        -14.2676   -4.1490   56.9487 N.pl3   1  ZINC000441887161   -0.4600
     10 C10       -14.7594   -4.0729   55.6736 C.2     1  ZINC000441887161   -0.0500
     11 C11       -14.8141   -5.3329   55.2013 C.2     1  ZINC000441887161   -0.0200
     12 N12       -14.3680   -6.1558   56.1619 N.2     1  ZINC000441887161   -0.4900
     13 C13       -14.0341   -5.4532   57.2097 C.2     1  ZINC000441887161    0.1800
     14 N14       -11.7586   -3.6356   58.5205 N.am    1  ZINC000441887161   -1.1100
     15 S15       -10.4349   -3.1724   59.4011 S.o2    1  ZINC000441887161    2.6900
     16 O16        -9.9781   -4.3341   60.0800 O.2     1  ZINC000441887161   -0.9600
     17 O17        -9.6154   -2.4121   58.5238 O.2     1  ZINC000441887161   -0.9500
     18 C18       -10.9994   -2.0590   60.6446 C.ar    1  ZINC000441887161   -0.6800
     19 C19       -10.1289   -1.1354   61.1921 C.ar    1  ZINC000441887161   -0.0300
     20 C20       -10.5718   -0.2619   62.1678 C.ar    1  ZINC000441887161   -0.1300
     21 C21       -11.8852   -0.3117   62.5956 C.ar    1  ZINC000441887161   -0.0200
     22 C22       -12.3678    0.6401   63.6595 C.3     1  ZINC000441887161   -0.1300
     23 C23       -12.7562   -1.2347   62.0470 C.ar    1  ZINC000441887161   -0.1000
     24 C24       -14.1883   -1.2888   62.5130 C.3     1  ZINC000441887161   -0.1200
     25 C25       -12.3145   -2.1054   61.0688 C.ar    1  ZINC000441887161   -0.0100
     26 C26       -12.1318   -1.3435   55.7064 C.ar    1  ZINC000441887161   -0.0700
     27 C27       -12.6186   -0.1038   56.4115 C.3     1  ZINC000441887161   -0.1300
     28 C28       -11.7129   -1.2711   54.3913 C.ar    1  ZINC000441887161   -0.1200
     29 H29        -9.7493   -2.1182   52.2749 H       1  ZINC000441887161    0.0700
     30 H30       -11.0142   -3.2820   51.8124 H       1  ZINC000441887161    0.0700
     31 H31       -11.3625   -1.5365   51.7976 H       1  ZINC000441887161    0.0700
     32 H32       -10.8898   -4.5063   53.9074 H       1  ZINC000441887161    0.1200
     33 H33       -11.6303   -4.6342   56.2525 H       1  ZINC000441887161    0.1200
     34 H34       -14.2982   -3.3175   58.8740 H       1  ZINC000441887161    0.1100
     35 H35       -14.6445   -2.1761   57.5527 H       1  ZINC000441887161    0.1000
     36 H36       -15.0483   -3.1750   55.1474 H       1  ZINC000441887161    0.1700
     37 H37       -15.1572   -5.6288   54.2210 H       1  ZINC000441887161    0.1600
     38 H38       -13.6421   -5.8497   58.1347 H       1  ZINC000441887161    0.2000
     39 H39       -12.0071   -4.5722   58.4744 H       1  ZINC000441887161    0.4200
     40 H40        -9.1027   -1.0965   60.8578 H       1  ZINC000441887161    0.1300
     41 H41        -9.8914    0.4593   62.5961 H       1  ZINC000441887161    0.1300
     42 H42       -12.7464    1.5481   63.1901 H       1  ZINC000441887161    0.0800
     43 H43       -13.1650    0.1687   64.2343 H       1  ZINC000441887161    0.0800
     44 H44       -11.5411    0.8921   64.3238 H       1  ZINC000441887161    0.0700
     45 H45       -14.7955   -0.6232   61.8994 H       1  ZINC000441887161    0.0800
     46 H46       -14.5619   -2.3086   62.4218 H       1  ZINC000441887161    0.0700
     47 H47       -14.2435   -0.9735   63.5550 H       1  ZINC000441887161    0.0700
     48 H48       -12.9949   -2.8264   60.6403 H       1  ZINC000441887161    0.1400
     49 H49       -11.7774    0.3930   56.8951 H       1  ZINC000441887161    0.0800
     50 H50       -13.0719    0.5723   55.6866 H       1  ZINC000441887161    0.0700
     51 H51       -13.3583   -0.3800   57.1629 H       1  ZINC000441887161    0.0600
     52 H52       -11.7367   -0.3265   53.8682 H       1  ZINC000441887161    0.1300
@<TRIPOS>BOND
     1     1     2    1
     2     1    29    1
     3     1    30    1
     4     1    31    1
     5     2    28   ar
     6     2     3   ar
     7     3     4   ar
     8     3    32    1
     9     4     5   ar
    10     4    33    1
    11     5     6    1
    12     5    26   ar
    13     6     7    1
    14     6     8    1
    15     6    14    1
    16     8     9    1
    17     8    34    1
    18     8    35    1
    19     9    13    1
    20     9    10    1
    21    10    11    2
    22    10    36    1
    23    11    12    1
    24    11    37    1
    25    12    13    2
    26    13    38    1
    27    14    15   am
    28    14    39    1
    29    15    16    2
    30    15    17    2
    31    15    18    1
    32    18    25   ar
    33    18    19   ar
    34    19    20   ar
    35    19    40    1
    36    20    21   ar
    37    20    41    1
    38    21    22    1
    39    21    23   ar
    40    22    42    1
    41    22    43    1
    42    22    44    1
    43    23    24    1
    44    23    25   ar
    45    24    45    1
    46    24    46    1
    47    24    47    1
    48    25    48    1
    49    26    27    1
    50    26    28   ar
    51    27    49    1
    52    27    50    1
    53    27    51    1
    54    28    52    1
@<TRIPOS>SUBSTRUCTURE
     1 ZINC000441887161        1 TEMP              0 ****  ****    0 ROOT


##########                                Name:    ZINC001141221454
##########                DOCK_Rotatable_Bonds:                   7
##########                         Heavy_Atoms:                  27
##########                    Molecular_Weight:             369.439
##########                DOCK_Rotatable_Bonds:                   7
##########                       Formal_Charge:          0.00999935
##########                     HBond_Acceptors:                   6
##########                        HBond_Donors:                   1
##########                         Heavy_Atoms:                  27
##########                          Grid_Score:          -34.219196
##########                     Grid_vdw_energy:          -33.909000
##########                      Grid_es_energy:           -0.310195
##########           Internal_energy_repulsive:           17.644901

@<TRIPOS>MOLECULE
ZINC001141221454
 51 54 1 0 0
SMALL
USER_CHARGES


@<TRIPOS>ATOM
      1 C1         -4.0123    2.4933   50.8360 C.3     1  ZINC001141221454    0.0300
      2 O2         -5.3196    2.8359   51.3004 O.3     1  ZINC001141221454   -0.3100
      3 C3         -6.2463    1.8413   51.3244 C.ar    1  ZINC001141221454    0.0900
      4 C4         -5.9396    0.5937   50.8041 C.ar    1  ZINC001141221454   -0.1800
      5 C5         -6.8830   -0.4162   50.8301 C.ar    1  ZINC001141221454   -0.0900
      6 C6         -8.1322   -0.1839   51.3741 C.ar    1  ZINC001141221454   -0.1200
      7 C7         -8.4426    1.0596   51.8939 C.ar    1  ZINC001141221454   -0.0800
      8 C8         -9.8058    1.3095   52.4858 C.3     1  ZINC001141221454    0.0900
      9 N9        -10.1402    0.2261   53.4196 N.3     1  ZINC001141221454   -0.5100
     10 C10       -10.6462    0.7695   54.7067 C.3     1  ZINC001141221454    0.0300
     11 C11       -11.4240   -0.4247   55.3185 C.3     1  ZINC001141221454   -0.0700
     12 C12       -12.0670   -1.0792   54.0820 C.3     1  ZINC001141221454   -0.1000
     13 C13       -13.5761   -1.2593   53.9799 C.3     1  ZINC001141221454   -0.1400
     14 C14       -12.6649   -2.4783   54.1509 C.3     1  ZINC001141221454   -0.1800
     15 H15       -12.5261   -3.1283   53.2870 H       1  ZINC001141221454    0.1300
     16 C16       -12.6700   -3.1690   55.4902 C.2     1  ZINC001141221454    0.5500
     17 O17       -13.5932   -2.9970   56.2578 O.2     1  ZINC001141221454   -0.5300
     18 N18       -11.6487   -3.9780   55.8351 N.am    1  ZINC001141221454   -0.7300
     19 C19       -11.6528   -4.6481   57.1378 C.3     1  ZINC001141221454    0.1700
     20 C20       -10.8295   -3.8500   58.1158 C.ar    1  ZINC001141221454   -0.1600
     21 C21        -9.9222   -4.4835   58.9507 C.ar    1  ZINC001141221454   -0.0600
     22 C22        -9.1860   -3.7088   59.8344 C.ar    1  ZINC001141221454   -0.1700
     23 C23        -9.3799   -2.3408   59.8533 C.ar    1  ZINC001141221454    0.1100
     24 N24       -10.2524   -1.7718   59.0441 N.ar    1  ZINC001141221454   -0.4800
     25 C25       -10.9656   -2.4763   58.1877 C.ar    1  ZINC001141221454    0.1200
     26 C26       -11.2295   -0.6210   52.8817 C.3     1  ZINC001141221454    0.0700
     27 C27        -7.5007    2.0719   51.8758 C.ar    1  ZINC001141221454    0.0900
     28 F28        -7.8035    3.2868   52.3834 F       1  ZINC001141221454   -0.1300
     29 H29        -3.3727    3.3754   50.8677 H       1  ZINC001141221454    0.1000
     30 H30        -3.5917    1.7165   51.4747 H       1  ZINC001141221454    0.0600
     31 H31        -4.0751    2.1267   49.8114 H       1  ZINC001141221454    0.0600
     32 H32        -4.9641    0.4107   50.3784 H       1  ZINC001141221454    0.1400
     33 H33        -6.6439   -1.3881   50.4243 H       1  ZINC001141221454    0.1300
     34 H34        -8.8674   -0.9748   51.3931 H       1  ZINC001141221454    0.1300
     35 H35        -9.8017    2.2603   53.0188 H       1  ZINC001141221454    0.0600
     36 H36       -10.5476    1.3434   51.6879 H       1  ZINC001141221454    0.0900
     37 H37        -9.8181    1.0603   55.3530 H       1  ZINC001141221454    0.0800
     38 H38       -11.3133    1.6136   54.5317 H       1  ZINC001141221454    0.0500
     39 H39       -10.7425   -1.1176   55.8120 H       1  ZINC001141221454    0.0900
     40 H40       -12.1886   -0.0735   56.0115 H       1  ZINC001141221454    0.0700
     41 H41       -14.1783   -0.9568   54.8366 H       1  ZINC001141221454    0.1000
     42 H42       -14.0364   -1.1076   53.0036 H       1  ZINC001141221454    0.1100
     43 H43       -10.9110   -4.1166   55.2207 H       1  ZINC001141221454    0.4000
     44 H44       -12.6766   -4.7260   57.5033 H       1  ZINC001141221454    0.0800
     45 H45       -11.2271   -5.6462   57.0343 H       1  ZINC001141221454    0.0800
     46 H46        -9.7919   -5.5551   58.9141 H       1  ZINC001141221454    0.1400
     47 H47        -8.4704   -4.1689   60.4996 H       1  ZINC001141221454    0.1400
     48 H48        -8.8109   -1.7305   60.5388 H       1  ZINC001141221454    0.1600
     49 H49       -11.6705   -1.9752   57.5409 H       1  ZINC001141221454    0.1600
     50 H50       -11.8474   -0.0422   52.1951 H       1  ZINC001141221454    0.0500
     51 H51       -10.8102   -1.4858   52.3677 H       1  ZINC001141221454    0.0900
@<TRIPOS>BOND
     1     1     2    1
     2     1    29    1
     3     1    30    1
     4     1    31    1
     5     2     3    1
     6     3    27   ar
     7     3     4   ar
     8     4     5   ar
     9     4    32    1
    10     5     6   ar
    11     5    33    1
    12     6     7   ar
    13     6    34    1
    14     7     8    1
    15     7    27   ar
    16     8     9    1
    17     8    35    1
    18     8    36    1
    19     9    26    1
    20     9    10    1
    21    10    11    1
    22    10    37    1
    23    10    38    1
    24    11    12    1
    25    11    39    1
    26    11    40    1
    27    12    14    1
    28    12    13    1
    29    12    26    1
    30    13    14    1
    31    13    41    1
    32    13    42    1
    33    14    15    1
    34    14    16    1
    35    16    17    2
    36    16    18   am
    37    18    19    1
    38    18    43    1
    39    19    20    1
    40    19    44    1
    41    19    45    1
    42    20    25   ar
    43    20    21   ar
    44    21    22   ar
    45    21    46    1
    46    22    23   ar
    47    22    47    1
    48    23    24   ar
    49    23    48    1
    50    24    25   ar
    51    25    49    1
    52    26    50    1
    53    26    51    1
    54    27    28    1
@<TRIPOS>SUBSTRUCTURE
     1 ZINC001141221454        1 TEMP              0 ****  ****    0 ROOT


##########                                Name:    ZINC000465392830
##########                DOCK_Rotatable_Bonds:                   8
##########                         Heavy_Atoms:                  29
##########                    Molecular_Weight:             419.588
##########                DOCK_Rotatable_Bonds:                   8
##########                       Formal_Charge:           0.0199996
##########                     HBond_Acceptors:                   7
##########                        HBond_Donors:                   0
##########                         Heavy_Atoms:                  29
##########                          Grid_Score:          -34.216457
##########                     Grid_vdw_energy:          -31.487061
##########                      Grid_es_energy:           -2.729397
##########           Internal_energy_repulsive:           31.567694

@<TRIPOS>MOLECULE
ZINC000465392830
 62 64 1 0 0
SMALL
USER_CHARGES


@<TRIPOS>ATOM
      1 C1        -11.6809    3.2006   59.8485 C.3     1  ZINC000465392830    0.0400
      2 O2        -12.7406    2.2876   60.2380 O.3     1  ZINC000465392830   -0.3600
      3 C3        -12.4071    1.2840   61.0646 C.2     1  ZINC000465392830    0.4600
      4 O4        -13.2467    0.4931   61.4242 O.2     1  ZINC000465392830   -0.4900
      5 C5        -10.9853    1.1439   61.5442 C.3     1  ZINC000465392830    0.1500
      6 H6        -10.3018    1.5587   60.8033 H       1  ZINC000465392830    0.1100
      7 C7        -10.8103    1.8791   62.8896 C.3     1  ZINC000465392830   -0.1100
      8 C8         -9.8628    0.9378   63.6793 C.3     1  ZINC000465392830   -0.0900
      9 H9         -8.8223    1.1096   63.4034 H       1  ZINC000465392830    0.1000
     10 C10       -10.0610    1.0998   65.1878 C.3     1  ZINC000465392830   -0.0800
     11 C11        -9.1118    0.1578   65.9310 C.3     1  ZINC000465392830   -0.1200
     12 C12        -9.3099    0.3197   67.4394 C.3     1  ZINC000465392830   -0.1200
     13 C13        -9.0111    1.7657   67.8407 C.3     1  ZINC000465392830   -0.1200
     14 C14        -9.9603    2.7077   67.0975 C.3     1  ZINC000465392830   -0.1200
     15 C15        -9.7622    2.5457   65.5890 C.3     1  ZINC000465392830   -0.1200
     16 C16       -10.3408   -0.4563   63.2023 C.3     1  ZINC000465392830    0.1000
     17 N17       -10.6727   -0.2743   61.7741 N.am    1  ZINC000465392830   -0.6100
     18 C18       -10.6890   -1.2469   60.8412 C.2     1  ZINC000465392830    0.5400
     19 O19       -10.4119   -2.3868   61.1487 O.2     1  ZINC000465392830   -0.5300
     20 C20       -11.0517   -0.9178   59.4160 C.3     1  ZINC000465392830   -0.1300
     21 C21       -10.0402   -1.5672   58.4693 C.3     1  ZINC000465392830   -0.0600
     22 C22       -10.6735   -1.7644   57.1161 C.ar    1  ZINC000465392830   -0.2000
     23 C23       -10.5446   -0.8016   56.1271 C.ar    1  ZINC000465392830    0.2000
     24 C24        -9.7661    0.4618   56.3895 C.3     1  ZINC000465392830   -0.1100
     25 N25       -11.1127   -1.0054   54.9503 N.ar    1  ZINC000465392830   -0.5000
     26 C26       -11.7986   -2.1144   54.7121 C.ar    1  ZINC000465392830    0.3000
     27 S27       -12.5390   -2.3449   53.1299 S.3     1  ZINC000465392830    0.0000
     28 C28       -12.8926   -0.6240   52.6945 C.3     1  ZINC000465392830   -0.1400
     29 N29       -11.9401   -3.0544   55.6359 N.ar    1  ZINC000465392830   -0.5300
     30 C30       -11.3925   -2.9148   56.8317 C.ar    1  ZINC000465392830    0.2000
     31 C31       -11.5583   -3.9882   57.8764 C.3     1  ZINC000465392830   -0.1100
     32 H32       -11.2678    3.6781   60.7370 H       1  ZINC000465392830    0.0600
     33 H33       -10.8949    2.6470   59.3347 H       1  ZINC000465392830    0.0600
     34 H34       -12.0845    3.9622   59.1812 H       1  ZINC000465392830    0.1000
     35 H35       -10.3473    2.8543   62.7388 H       1  ZINC000465392830    0.1000
     36 H36       -11.7674    1.9804   63.4011 H       1  ZINC000465392830    0.0800
     37 H37       -11.0913    0.8564   65.4471 H       1  ZINC000465392830    0.0800
     38 H38        -9.3246   -0.8723   65.6451 H       1  ZINC000465392830    0.0600
     39 H39        -8.0814    0.4012   65.6717 H       1  ZINC000465392830    0.0700
     40 H40       -10.3403    0.0763   67.6987 H       1  ZINC000465392830    0.0600
     41 H41        -8.6337   -0.3514   67.9689 H       1  ZINC000465392830    0.0600
     42 H42        -9.1524    1.8811   68.9153 H       1  ZINC000465392830    0.0600
     43 H43        -7.9808    2.0091   67.5813 H       1  ZINC000465392830    0.0600
     44 H44       -10.9907    2.4643   67.3567 H       1  ZINC000465392830    0.0600
     45 H45        -9.7475    3.7379   67.3832 H       1  ZINC000465392830    0.0600
     46 H46        -8.7318    2.7893   65.3297 H       1  ZINC000465392830    0.0700
     47 H47       -10.4384    3.2169   65.0596 H       1  ZINC000465392830    0.0600
     48 H48        -9.5425   -1.1899   63.3142 H       1  ZINC000465392830    0.0900
     49 H49       -11.2235   -0.7665   63.7615 H       1  ZINC000465392830    0.0800
     50 H50       -12.0497   -1.2983   59.1979 H       1  ZINC000465392830    0.1000
     51 H51       -11.0368    0.1633   59.2776 H       1  ZINC000465392830    0.1000
     52 H52        -9.1676   -0.9215   58.3716 H       1  ZINC000465392830    0.0900
     53 H53        -9.7343   -2.5330   58.8715 H       1  ZINC000465392830    0.0900
     54 H54        -8.7217    0.3080   56.1182 H       1  ZINC000465392830    0.0900
     55 H55       -10.1806    1.2745   55.7929 H       1  ZINC000465392830    0.0900
     56 H56        -9.8330    0.7167   57.4471 H       1  ZINC000465392830    0.0900
     57 H57       -13.5621   -0.1914   53.4381 H       1  ZINC000465392830    0.0900
     58 H58       -11.9621   -0.0569   52.6698 H       1  ZINC000465392830    0.0900
     59 H59       -13.3667   -0.5875   51.7137 H       1  ZINC000465392830    0.1100
     60 H60       -10.7438   -4.7074   57.7907 H       1  ZINC000465392830    0.0900
     61 H61       -11.5409   -3.5360   58.8679 H       1  ZINC000465392830    0.0900
     62 H62       -12.5102   -4.4976   57.7261 H       1  ZINC000465392830    0.0800
@<TRIPOS>BOND
     1     1     2    1
     2     1    32    1
     3     1    33    1
     4     1    34    1
     5     2     3    1
     6     3     4    2
     7     3     5    1
     8     5     6    1
     9     5    17    1
    10     5     7    1
    11     7     8    1
    12     7    35    1
    13     7    36    1
    14     8     9    1
    15     8    10    1
    16     8    16    1
    17    10    15    1
    18    10    11    1
    19    10    37    1
    20    11    12    1
    21    11    38    1
    22    11    39    1
    23    12    13    1
    24    12    40    1
    25    12    41    1
    26    13    14    1
    27    13    42    1
    28    13    43    1
    29    14    15    1
    30    14    44    1
    31    14    45    1
    32    15    46    1
    33    15    47    1
    34    16    17    1
    35    16    48    1
    36    16    49    1
    37    17    18   am
    38    18    19    2
    39    18    20    1
    40    20    21    1
    41    20    50    1
    42    20    51    1
    43    21    22    1
    44    21    52    1
    45    21    53    1
    46    22    30   ar
    47    22    23   ar
    48    23    24    1
    49    23    25   ar
    50    24    54    1
    51    24    55    1
    52    24    56    1
    53    25    26   ar
    54    26    27    1
    55    26    29   ar
    56    27    28    1
    57    28    57    1
    58    28    58    1
    59    28    59    1
    60    29    30   ar
    61    30    31    1
    62    31    60    1
    63    31    61    1
    64    31    62    1
@<TRIPOS>SUBSTRUCTURE
     1 ZINC000465392830        1 TEMP              0 ****  ****    0 ROOT


##########                                Name:    ZINC001707162141
##########                DOCK_Rotatable_Bonds:                   9
##########                         Heavy_Atoms:                  25
##########                    Molecular_Weight:               344.5
##########                DOCK_Rotatable_Bonds:                   9
##########                       Formal_Charge:          -0.0299999
##########                     HBond_Acceptors:                   5
##########                        HBond_Donors:                   1
##########                         Heavy_Atoms:                  25
##########                          Grid_Score:          -34.205677
##########                     Grid_vdw_energy:          -33.689663
##########                      Grid_es_energy:           -0.516016
##########           Internal_energy_repulsive:           81.562813

@<TRIPOS>MOLECULE
ZINC001707162141
 57 59 1 0 0
SMALL
USER_CHARGES


@<TRIPOS>ATOM
      1 C1         -9.6688   -3.6594   59.6084 C.3     1  ZINC001707162141   -0.1800
      2 C2        -10.0875   -2.2527   59.1765 C.3     1  ZINC001707162141    0.1700
      3 H3         -9.4123   -1.8954   58.3988 H       1  ZINC001707162141    0.1000
      4 N4        -11.4601   -2.2888   58.6545 N.3     1  ZINC001707162141   -0.6400
      5 C5        -11.4768   -2.0711   57.2017 C.3     1  ZINC001707162141    0.0700
      6 C6        -12.7569   -2.6659   56.6116 C.3     1  ZINC001707162141    0.1500
      7 H7        -13.6197   -2.1039   56.9693 H       1  ZINC001707162141    0.0700
      8 C8        -12.8843   -4.1326   57.0348 C.3     1  ZINC001707162141   -0.1200
      9 C9        -14.0894   -4.7599   56.3303 C.3     1  ZINC001707162141   -0.0900
     10 H10       -14.9910   -4.2050   56.5900 H       1  ZINC001707162141    0.0700
     11 C11       -14.2404   -6.2154   56.7772 C.3     1  ZINC001707162141   -0.1500
     12 C12       -13.8793   -4.7109   54.8152 C.3     1  ZINC001707162141   -0.1300
     13 C13       -13.7632   -3.2507   54.3668 C.3     1  ZINC001707162141    0.1100
     14 N14       -12.7001   -2.6001   55.1449 N.am    1  ZINC001707162141   -0.6100
     15 C15       -11.6916   -1.9557   54.5250 C.2     1  ZINC001707162141    0.5100
     16 O16       -10.8201   -1.4226   55.1785 O.2     1  ZINC001707162141   -0.4800
     17 C17       -11.6470   -1.8975   53.0198 C.3     1  ZINC001707162141   -0.1400
     18 C18       -10.3971   -1.1351   52.5757 C.3     1  ZINC001707162141   -0.0900
     19 C19       -10.6473    0.3695   52.6976 C.3     1  ZINC001707162141   -0.0900
     20 C20        -9.3993    1.1320   52.2484 C.3     1  ZINC001707162141   -0.1500
     21 C21        -8.6266    1.9124   53.3137 C.3     1  ZINC001707162141   -0.1800
     22 C22        -9.4592    2.6607   52.2708 C.3     1  ZINC001707162141   -0.1800
     23 C23       -10.0251   -1.3238   60.3616 C.ar    1  ZINC001707162141    0.3500
     24 N24       -10.3331   -0.0530   60.1974 N.ar    1  ZINC001707162141   -0.5000
     25 C25       -10.2951    0.7909   61.2160 C.ar    1  ZINC001707162141    0.1500
     26 C26        -9.9142    0.3242   62.4642 C.ar    1  ZINC001707162141   -0.2400
     27 C27        -9.5922   -1.0175   62.5963 C.ar    1  ZINC001707162141    0.1500
     28 N28        -9.6586   -1.8029   61.5334 N.ar    1  ZINC001707162141   -0.5200
     29 H29        -9.7140   -4.3312   58.7513 H       1  ZINC001707162141    0.0600
     30 H30        -8.6504   -3.6325   59.9958 H       1  ZINC001707162141    0.0600
     31 H31       -10.3440   -4.0167   60.3860 H       1  ZINC001707162141    0.0600
     32 H32       -11.9159   -3.1562   58.8953 H       1  ZINC001707162141    0.3300
     33 H33       -11.4438   -1.0015   56.9942 H       1  ZINC001707162141    0.1000
     34 H34       -10.6102   -2.5554   56.7518 H       1  ZINC001707162141    0.0200
     35 H35       -11.9789   -4.6716   56.7561 H       1  ZINC001707162141    0.0700
     36 H36       -13.0241   -4.1890   58.1143 H       1  ZINC001707162141    0.0700
     37 H37       -13.3392   -6.7706   56.5171 H       1  ZINC001707162141    0.0500
     38 H38       -14.3902   -6.2505   57.8563 H       1  ZINC001707162141    0.0600
     39 H39       -15.0994   -6.6619   56.2764 H       1  ZINC001707162141    0.0600
     40 H40       -14.7271   -5.1788   54.3150 H       1  ZINC001707162141    0.0700
     41 H41       -12.9644   -5.2445   54.5574 H       1  ZINC001707162141    0.0700
     42 H42       -14.7093   -2.7385   54.5413 H       1  ZINC001707162141    0.0600
     43 H43       -13.5150   -3.2127   53.3061 H       1  ZINC001707162141    0.0800
     44 H44       -11.6168   -2.9102   52.6178 H       1  ZINC001707162141    0.0800
     45 H45       -12.5355   -1.3859   52.6495 H       1  ZINC001707162141    0.0800
     46 H46        -9.5558   -1.4160   53.2093 H       1  ZINC001707162141    0.0700
     47 H47       -10.1697   -1.3827   51.5388 H       1  ZINC001707162141    0.0700
     48 H48       -11.4910    0.6497   52.0669 H       1  ZINC001707162141    0.0600
     49 H49       -10.8710    0.6177   53.7351 H       1  ZINC001707162141    0.0600
     50 H50        -8.8231    0.6627   51.4510 H       1  ZINC001707162141    0.1000
     51 H51        -9.0074    1.8825   54.3346 H       1  ZINC001707162141    0.0900
     52 H52        -7.5417    1.9563   53.2174 H       1  ZINC001707162141    0.0900
     53 H53        -8.9222    3.1970   51.4884 H       1  ZINC001707162141    0.0900
     54 H54       -10.3878    3.1231   52.6056 H       1  ZINC001707162141    0.0900
     55 H55       -10.5527    1.8302   61.0757 H       1  ZINC001707162141    0.1600
     56 H56        -9.8698    0.9897   63.3137 H       1  ZINC001707162141    0.1400
     57 H57        -9.2909   -1.4163   63.5537 H       1  ZINC001707162141    0.1600
@<TRIPOS>BOND
     1     1     2    1
     2     1    29    1
     3     1    30    1
     4     1    31    1
     5     2     3    1
     6     2     4    1
     7     2    23    1
     8     4     5    1
     9     4    32    1
    10     5     6    1
    11     5    33    1
    12     5    34    1
    13     6     7    1
    14     6    14    1
    15     6     8    1
    16     8     9    1
    17     8    35    1
    18     8    36    1
    19     9    10    1
    20     9    11    1
    21     9    12    1
    22    11    37    1
    23    11    38    1
    24    11    39    1
    25    12    13    1
    26    12    40    1
    27    12    41    1
    28    13    14    1
    29    13    42    1
    30    13    43    1
    31    14    15   am
    32    15    16    2
    33    15    17    1
    34    17    18    1
    35    17    44    1
    36    17    45    1
    37    18    19    1
    38    18    46    1
    39    18    47    1
    40    19    20    1
    41    19    48    1
    42    19    49    1
    43    20    22    1
    44    20    21    1
    45    20    50    1
    46    21    22    1
    47    21    51    1
    48    21    52    1
    49    22    53    1
    50    22    54    1
    51    23    28   ar
    52    23    24   ar
    53    24    25   ar
    54    25    26   ar
    55    25    55    1
    56    26    27   ar
    57    26    56    1
    58    27    28   ar
    59    27    57    1
@<TRIPOS>SUBSTRUCTURE
     1 ZINC001707162141        1 TEMP              0 ****  ****    0 ROOT


##########                                Name:    ZINC000590699876
##########                DOCK_Rotatable_Bonds:                   9
##########                         Heavy_Atoms:                  30
##########                    Molecular_Weight:              421.54
##########                DOCK_Rotatable_Bonds:                   9
##########                       Formal_Charge:          -0.0300004
##########                     HBond_Acceptors:                   9
##########                        HBond_Donors:                   1
##########                         Heavy_Atoms:                  30
##########                          Grid_Score:          -34.179008
##########                     Grid_vdw_energy:          -32.412224
##########                      Grid_es_energy:           -1.766787
##########           Internal_energy_repulsive:          112.124947

@<TRIPOS>MOLECULE
ZINC000590699876
 65 67 1 0 0
SMALL
USER_CHARGES


@<TRIPOS>ATOM
      1 C1        -16.6085   -5.0762   45.5095 C.3     1  ZINC000590699876   -0.1700
      2 C2        -16.6705   -3.8465   46.3783 C.2     1  ZINC000590699876    0.5100
      3 O3        -16.9890   -3.9434   47.5445 O.2     1  ZINC000590699876   -0.5500
      4 N4        -16.3720   -2.6390   45.8594 N.am    1  ZINC000590699876   -0.7200
      5 C5        -16.4341   -1.4432   46.7036 C.3     1  ZINC000590699876    0.1100
      6 C6        -15.4403   -1.5707   47.8293 C.2     1  ZINC000590699876    0.5300
      7 O7        -14.8977   -2.6345   48.0415 O.2     1  ZINC000590699876   -0.5200
      8 N8        -15.1547   -0.5029   48.6002 N.am    1  ZINC000590699876   -0.6000
      9 C9        -15.7382    0.8431   48.4541 C.3     1  ZINC000590699876    0.1000
     10 C10       -15.6041    1.4878   49.8563 C.3     1  ZINC000590699876   -0.1300
     11 C11       -14.2311    0.9359   50.3228 C.3     1  ZINC000590699876   -0.1300
     12 C12       -14.2142   -0.4889   49.7302 C.3     1  ZINC000590699876    0.1200
     13 H13       -13.2124   -0.7308   49.3753 H       1  ZINC000590699876    0.1000
     14 C14       -14.6410   -1.4847   50.7776 C.2     1  ZINC000590699876    0.5100
     15 O15       -15.7617   -1.9479   50.7531 O.2     1  ZINC000590699876   -0.5200
     16 N16       -13.7775   -1.8607   51.7416 N.am    1  ZINC000590699876   -0.6100
     17 C17       -12.4165   -1.3055   51.7944 C.3     1  ZINC000590699876    0.1000
     18 C18       -12.1595   -0.7807   53.2110 C.3     1  ZINC000590699876    0.0400
     19 N19       -12.4329   -1.8483   54.1824 N.3     1  ZINC000590699876   -0.5200
     20 C20       -12.0354   -1.4420   55.5370 C.3     1  ZINC000590699876    0.0400
     21 C21       -11.8232   -2.6680   56.3871 C.2     1  ZINC000590699876    0.5200
     22 O22       -11.8921   -3.7713   55.8882 O.2     1  ZINC000590699876   -0.5100
     23 N23       -11.5568   -2.5384   57.7019 N.am    1  ZINC000590699876   -0.6100
     24 C24       -11.4700   -1.2087   58.3207 C.3     1  ZINC000590699876    0.1100
     25 C25       -10.1305   -1.0928   59.0547 C.3     1  ZINC000590699876   -0.1400
     26 C26        -9.9914   -2.2551   60.0407 C.3     1  ZINC000590699876   -0.1200
     27 C27       -10.0099   -3.5803   59.2755 C.3     1  ZINC000590699876   -0.1300
     28 C28       -11.3537   -3.7245   58.5451 C.3     1  ZINC000590699876    0.1400
     29 H29       -12.1596   -3.8031   59.2747 H       1  ZINC000590699876    0.0700
     30 C30       -11.3298   -4.9793   57.6700 C.3     1  ZINC000590699876   -0.1400
     31 C31       -13.8449   -2.2520   54.1469 C.3     1  ZINC000590699876    0.0400
     32 C32       -14.1730   -2.8325   52.7723 C.3     1  ZINC000590699876    0.1200
     33 H33       -16.8807   -5.9516   46.0989 H       1  ZINC000590699876    0.1000
     34 H34       -17.3035   -4.9682   44.6768 H       1  ZINC000590699876    0.0900
     35 H35       -15.5961   -5.1981   45.1241 H       1  ZINC000590699876    0.0900
     36 H36       -16.1160   -2.5615   44.9270 H       1  ZINC000590699876    0.4100
     37 H37       -16.1950   -0.5636   46.1058 H       1  ZINC000590699876    0.1000
     38 H38       -17.4382   -1.3407   47.1151 H       1  ZINC000590699876    0.1000
     39 H39       -15.1807    1.4202   47.7163 H       1  ZINC000590699876    0.0800
     40 H40       -16.7875    0.7726   48.1678 H       1  ZINC000590699876    0.0800
     41 H41       -15.5845    2.5754   49.7860 H       1  ZINC000590699876    0.0900
     42 H42       -16.4042    1.1549   50.5175 H       1  ZINC000590699876    0.0800
     43 H43       -13.4163    1.5359   49.9175 H       1  ZINC000590699876    0.1000
     44 H44       -14.1799    0.8990   51.4110 H       1  ZINC000590699876    0.0900
     45 H45       -11.6934   -2.0854   51.5561 H       1  ZINC000590699876    0.0800
     46 H46       -12.3266   -0.4880   51.0791 H       1  ZINC000590699876    0.0900
     47 H47       -11.1196   -0.4662   53.2993 H       1  ZINC000590699876    0.0900
     48 H48       -12.8146    0.0678   53.4090 H       1  ZINC000590699876    0.0400
     49 H49       -11.1093   -0.8694   55.4874 H       1  ZINC000590699876    0.1000
     50 H50       -12.8201   -0.8263   55.9766 H       1  ZINC000590699876    0.0600
     51 H51       -11.5311   -0.4417   57.5486 H       1  ZINC000590699876    0.0800
     52 H52       -12.2877   -1.0817   59.0302 H       1  ZINC000590699876    0.0700
     53 H53        -9.3152   -1.1293   58.3321 H       1  ZINC000590699876    0.0700
     54 H54       -10.0937   -0.1485   59.5981 H       1  ZINC000590699876    0.0800
     55 H55        -9.0501   -2.1615   60.5820 H       1  ZINC000590699876    0.0700
     56 H56       -10.8205   -2.2325   60.7479 H       1  ZINC000590699876    0.0600
     57 H57        -9.1959   -3.5933   58.5507 H       1  ZINC000590699876    0.0700
     58 H58        -9.8875   -4.4065   59.9759 H       1  ZINC000590699876    0.0700
     59 H59       -11.1016   -5.8484   58.2872 H       1  ZINC000590699876    0.0400
     60 H60       -12.3041   -5.1132   57.2000 H       1  ZINC000590699876    0.0700
     61 H61       -10.5666   -4.8705   56.8994 H       1  ZINC000590699876    0.0700
     62 H62       -14.0273   -3.0047   54.9141 H       1  ZINC000590699876    0.1100
     63 H63       -14.4765   -1.3831   54.3319 H       1  ZINC000590699876    0.0300
     64 H64       -15.2432   -3.0271   52.7029 H       1  ZINC000590699876    0.0900
     65 H65       -13.6192   -3.7597   52.6247 H       1  ZINC000590699876    0.0800
@<TRIPOS>BOND
     1     1     2    1
     2     1    33    1
     3     1    34    1
     4     1    35    1
     5     2     3    2
     6     2     4   am
     7     4     5    1
     8     4    36    1
     9     5     6    1
    10     5    37    1
    11     5    38    1
    12     6     7    2
    13     6     8   am
    14     8    12    1
    15     8     9    1
    16     9    10    1
    17     9    39    1
    18     9    40    1
    19    10    11    1
    20    10    41    1
    21    10    42    1
    22    11    12    1
    23    11    43    1
    24    11    44    1
    25    12    13    1
    26    12    14    1
    27    14    15    2
    28    14    16   am
    29    16    32    1
    30    16    17    1
    31    17    18    1
    32    17    45    1
    33    17    46    1
    34    18    19    1
    35    18    47    1
    36    18    48    1
    37    19    20    1
    38    19    31    1
    39    20    21    1
    40    20    49    1
    41    20    50    1
    42    21    22    2
    43    21    23   am
    44    23    28    1
    45    23    24    1
    46    24    25    1
    47    24    51    1
    48    24    52    1
    49    25    26    1
    50    25    53    1
    51    25    54    1
    52    26    27    1
    53    26    55    1
    54    26    56    1
    55    27    28    1
    56    27    57    1
    57    27    58    1
    58    28    29    1
    59    28    30    1
    60    30    59    1
    61    30    60    1
    62    30    61    1
    63    31    32    1
    64    31    62    1
    65    31    63    1
    66    32    64    1
    67    32    65    1
@<TRIPOS>SUBSTRUCTURE
     1 ZINC000590699876        1 TEMP              0 ****  ****    0 ROOT


##########                                Name:    ZINC000989658617
##########                DOCK_Rotatable_Bonds:                   6
##########                         Heavy_Atoms:                  24
##########                    Molecular_Weight:             334.418
##########                DOCK_Rotatable_Bonds:                   6
##########                       Formal_Charge:          -0.0100001
##########                     HBond_Acceptors:                   7
##########                        HBond_Donors:                   2
##########                         Heavy_Atoms:                  24
##########                          Grid_Score:          -34.162880
##########                     Grid_vdw_energy:          -32.694649
##########                      Grid_es_energy:           -1.468232
##########           Internal_energy_repulsive:           14.227471

@<TRIPOS>MOLECULE
ZINC000989658617
 50 52 1 0 0
SMALL
USER_CHARGES


@<TRIPOS>ATOM
      1 C1        -14.3819   -1.1518   49.8551 C.3     1  ZINC000989658617    0.0300
      2 O2        -14.2097   -1.0155   51.2672 O.3     1  ZINC000989658617   -0.3700
      3 C3        -13.6056   -2.1503   51.8912 C.3     1  ZINC000989658617    0.0500
      4 C4        -14.6536   -2.9240   52.6490 C.2     1  ZINC000989658617    0.5300
      5 O5        -15.7933   -2.9652   52.2366 O.2     1  ZINC000989658617   -0.5100
      6 N6        -14.3241   -3.5701   53.7850 N.am    1  ZINC000989658617   -0.6200
      7 C7        -15.2451   -4.3606   54.6218 C.3     1  ZINC000989658617    0.1000
      8 C8        -14.6043   -4.3538   56.0321 C.3     1  ZINC000989658617   -0.1500
      9 C9        -13.0936   -4.4382   55.6883 C.3     1  ZINC000989658617    0.1400
     10 H10       -12.7965   -5.4712   55.5071 H       1  ZINC000989658617    0.1100
     11 N11       -12.2848   -3.8483   56.7579 N.am    1  ZINC000989658617   -0.7100
     12 C12       -11.5253   -4.6384   57.5423 C.2     1  ZINC000989658617    0.6100
     13 O13       -11.5124   -5.8407   57.3631 O.2     1  ZINC000989658617   -0.5200
     14 C14       -10.7084   -4.0434   58.6196 C.2     1  ZINC000989658617   -0.0100
     15 N15        -9.6932   -4.6125   59.2469 N.2     1  ZINC000989658617   -0.2600
     16 N16        -9.2096   -3.8080   60.1295 N.pl3   1  ZINC000989658617   -0.3700
     17 C17        -9.8942   -2.6525   60.1233 C.2     1  ZINC000989658617    0.0100
     18 C18       -10.8551   -2.7605   59.1729 C.2     1  ZINC000989658617   -0.1400
     19 C19       -11.8521   -1.6850   58.8400 C.3     1  ZINC000989658617   -0.0400
     20 C20       -11.8631   -0.6664   59.9879 C.3     1  ZINC000989658617   -0.0900
     21 H21       -12.3234   -1.1159   60.8678 H       1  ZINC000989658617    0.0700
     22 C22       -12.6644    0.5672   59.5673 C.3     1  ZINC000989658617   -0.1500
     23 C23       -10.4264   -0.2530   60.3185 C.3     1  ZINC000989658617   -0.1100
     24 C24        -9.6873   -1.4253   60.9733 C.3     1  ZINC000989658617   -0.0500
     25 C25       -12.9853   -3.6088   54.3913 C.3     1  ZINC000989658617    0.1300
     26 H26       -12.6605   -2.5950   54.6256 H       1  ZINC000989658617    0.0800
     27 C27       -11.9884   -4.2664   53.4349 C.3     1  ZINC000989658617   -0.1600
     28 H28       -13.4105   -1.2993   49.3831 H       1  ZINC000989658617    0.0500
     29 H29       -15.0205   -2.0106   49.6482 H       1  ZINC000989658617    0.0400
     30 H30       -14.8462   -0.2495   49.4569 H       1  ZINC000989658617    0.0900
     31 H31       -13.1615   -2.7905   51.1291 H       1  ZINC000989658617    0.0800
     32 H32       -12.8310   -1.8158   52.5814 H       1  ZINC000989658617    0.0800
     33 H33       -16.2289   -3.8923   54.6499 H       1  ZINC000989658617    0.0800
     34 H34       -15.3202   -5.3804   54.2443 H       1  ZINC000989658617    0.0800
     35 H35       -14.8335   -3.4285   56.5609 H       1  ZINC000989658617    0.0800
     36 H36       -14.9225   -5.2213   56.6101 H       1  ZINC000989658617    0.1000
     37 H37       -12.2960   -2.8891   56.9016 H       1  ZINC000989658617    0.4100
     38 H38        -8.4607   -4.0076   60.7128 H       1  ZINC000989658617    0.4500
     39 H39       -11.5630   -1.1904   57.9126 H       1  ZINC000989658617    0.0800
     40 H40       -12.8434   -2.1244   58.7291 H       1  ZINC000989658617    0.0800
     41 H41       -13.6874    0.2733   59.3325 H       1  ZINC000989658617    0.0600
     42 H42       -12.6723    1.2907   60.3826 H       1  ZINC000989658617    0.0600
     43 H43       -12.2044    1.0166   58.6872 H       1  ZINC000989658617    0.0600
     44 H44        -9.9103    0.0305   59.4014 H       1  ZINC000989658617    0.0700
     45 H45       -10.4413    0.5953   61.0030 H       1  ZINC000989658617    0.0800
     46 H46       -10.0905   -1.6028   61.9703 H       1  ZINC000989658617    0.0800
     47 H47        -8.6239   -1.1965   61.0420 H       1  ZINC000989658617    0.0800
     48 H48       -12.3287   -5.2727   53.1909 H       1  ZINC000989658617    0.0600
     49 H49       -11.9172   -3.6755   52.5217 H       1  ZINC000989658617    0.0700
     50 H50       -11.0092   -4.3193   53.9107 H       1  ZINC000989658617    0.0700
@<TRIPOS>BOND
     1     1     2    1
     2     1    28    1
     3     1    29    1
     4     1    30    1
     5     2     3    1
     6     3     4    1
     7     3    31    1
     8     3    32    1
     9     4     5    2
    10     4     6   am
    11     6    25    1
    12     6     7    1
    13     7     8    1
    14     7    33    1
    15     7    34    1
    16     8     9    1
    17     8    35    1
    18     8    36    1
    19     9    10    1
    20     9    11    1
    21     9    25    1
    22    11    12   am
    23    11    37    1
    24    12    13    2
    25    12    14    1
    26    14    18    1
    27    14    15    2
    28    15    16    1
    29    16    17    1
    30    16    38    1
    31    17    24    1
    32    17    18    2
    33    18    19    1
    34    19    20    1
    35    19    39    1
    36    19    40    1
    37    20    21    1
    38    20    22    1
    39    20    23    1
    40    22    41    1
    41    22    42    1
    42    22    43    1
    43    23    24    1
    44    23    44    1
    45    23    45    1
    46    24    46    1
    47    24    47    1
    48    25    26    1
    49    25    27    1
    50    27    48    1
    51    27    49    1
    52    27    50    1
@<TRIPOS>SUBSTRUCTURE
     1 ZINC000989658617        1 TEMP              0 ****  ****    0 ROOT


##########                                Name:    ZINC000541568816
##########                DOCK_Rotatable_Bonds:                   8
##########                         Heavy_Atoms:                  25
##########                    Molecular_Weight:             411.339
##########                DOCK_Rotatable_Bonds:                   8
##########                       Formal_Charge:          -0.0100007
##########                     HBond_Acceptors:                   5
##########                        HBond_Donors:                   1
##########                         Heavy_Atoms:                  25
##########                          Grid_Score:          -34.138874
##########                     Grid_vdw_energy:          -33.388168
##########                      Grid_es_energy:           -0.750705
##########           Internal_energy_repulsive:           19.032238

@<TRIPOS>MOLECULE
ZINC000541568816
 52 54 1 0 0
SMALL
USER_CHARGES


@<TRIPOS>ATOM
      1 C1        -11.7179   -3.6573   52.4092 C.3     1  ZINC000541568816   -0.1500
      2 C2        -11.4033   -3.4929   53.8974 C.3     1  ZINC000541568816    0.0600
      3 O3        -12.4389   -4.0995   54.6730 O.3     1  ZINC000541568816   -0.3700
      4 C4        -12.5627   -3.5684   55.9938 C.3     1  ZINC000541568816    0.0700
      5 H5        -11.8941   -2.7273   56.1766 H       1  ZINC000541568816    0.0900
      6 C6        -12.5210   -4.6409   57.0967 C.3     1  ZINC000541568816   -0.1700
      7 C7        -13.6394   -3.8522   57.8003 C.3     1  ZINC000541568816    0.1500
      8 H8        -14.4090   -4.4851   58.2424 H       1  ZINC000541568816    0.1100
      9 N9        -13.1447   -2.8281   58.7238 N.am    1  ZINC000541568816   -0.7200
     10 C10       -13.6598   -2.7351   59.9657 C.2     1  ZINC000541568816    0.7100
     11 O11       -14.5341   -3.5021   60.3202 O.2     1  ZINC000541568816   -0.5800
     12 N12       -13.2058   -1.7920   60.8147 N.am    1  ZINC000541568816   -0.6300
     13 C13       -13.7669   -1.6897   62.1641 C.3     1  ZINC000541568816    0.1000
     14 C14       -14.9831   -0.7616   62.1417 C.3     1  ZINC000541568816   -0.1800
     15 C15       -12.1511   -0.8690   60.3881 C.3     1  ZINC000541568816    0.1700
     16 C16       -11.1741   -0.6662   61.5173 C.ar    1  ZINC000541568816   -0.0700
     17 C17       -11.2659    0.4570   62.3173 C.ar    1  ZINC000541568816   -0.1000
     18 C18       -10.3696    0.6432   63.3534 C.ar    1  ZINC000541568816   -0.1000
     19 C19        -9.3816   -0.2940   63.5899 C.ar    1  ZINC000541568816   -0.1200
     20 C20        -9.2889   -1.4178   62.7902 C.ar    1  ZINC000541568816   -0.0900
     21 C21       -10.1885   -1.6070   61.7569 C.ar    1  ZINC000541568816   -0.0900
     22 Br22      -10.0623   -3.1441   60.6626 Br      1  ZINC000541568816   -0.0500
     23 C23       -14.0114   -3.3047   56.4166 C.3     1  ZINC000541568816    0.0800
     24 C24       -15.0607   -4.1370   55.6594 C.3     1  ZINC000541568816   -0.1200
     25 C25       -16.3060   -3.2080   55.7044 C.3     1  ZINC000541568816   -0.1600
     26 C26       -15.6366   -1.8118   55.6327 C.3     1  ZINC000541568816    0.0500
     27 O27       -14.4199   -1.9386   56.3894 O.3     1  ZINC000541568816   -0.3600
     28 H28       -11.7801   -4.7179   52.1659 H       1  ZINC000541568816    0.0600
     29 H29       -12.6697   -3.1763   52.1838 H       1  ZINC000541568816    0.0600
     30 H30       -10.9279   -3.1946   51.8175 H       1  ZINC000541568816    0.0700
     31 H31       -10.4514   -3.9739   54.1228 H       1  ZINC000541568816    0.0500
     32 H32       -11.3410   -2.4323   54.1407 H       1  ZINC000541568816    0.0500
     33 H33       -12.8313   -5.6289   56.7565 H       1  ZINC000541568816    0.1000
     34 H34       -11.5836   -4.6589   57.6526 H       1  ZINC000541568816    0.0800
     35 H35       -12.4464   -2.2170   58.4413 H       1  ZINC000541568816    0.4000
     36 H36       -14.0708   -2.6786   62.5071 H       1  ZINC000541568816    0.0900
     37 H37       -13.0140   -1.2857   62.8410 H       1  ZINC000541568816    0.0700
     38 H38       -15.7360   -1.1655   61.4648 H       1  ZINC000541568816    0.0600
     39 H39       -15.4006   -0.6855   63.1457 H       1  ZINC000541568816    0.0700
     40 H40       -14.6793    0.2273   61.7986 H       1  ZINC000541568816    0.0600
     41 H41       -11.6294   -1.2866   59.5269 H       1  ZINC000541568816    0.1000
     42 H42       -12.5947    0.0885   60.1150 H       1  ZINC000541568816    0.1100
     43 H43       -12.0378    1.1896   62.1329 H       1  ZINC000541568816    0.1300
     44 H44       -10.4412    1.5214   63.9780 H       1  ZINC000541568816    0.1300
     45 H45        -8.6816   -0.1481   64.3994 H       1  ZINC000541568816    0.1300
     46 H46        -8.5166   -2.1499   62.9748 H       1  ZINC000541568816    0.1300
     47 H47       -14.7465   -4.3171   54.6313 H       1  ZINC000541568816    0.1000
     48 H48       -15.2577   -5.0770   56.1750 H       1  ZINC000541568816    0.0900
     49 H49       -16.9536   -3.3776   54.8443 H       1  ZINC000541568816    0.0900
     50 H50       -16.8552   -3.3326   56.6376 H       1  ZINC000541568816    0.0800
     51 H51       -15.4131   -1.5523   54.5979 H       1  ZINC000541568816    0.0600
     52 H52       -16.2842   -1.0584   56.0811 H       1  ZINC000541568816    0.0900
@<TRIPOS>BOND
     1     1     2    1
     2     1    28    1
     3     1    29    1
     4     1    30    1
     5     2     3    1
     6     2    31    1
     7     2    32    1
     8     3     4    1
     9     4     5    1
    10     4    23    1
    11     4     6    1
    12     6     7    1
    13     6    33    1
    14     6    34    1
    15     7     8    1
    16     7     9    1
    17     7    23    1
    18     9    10   am
    19     9    35    1
    20    10    11    2
    21    10    12   am
    22    12    13    1
    23    12    15    1
    24    13    14    1
    25    13    36    1
    26    13    37    1
    27    14    38    1
    28    14    39    1
    29    14    40    1
    30    15    16    1
    31    15    41    1
    32    15    42    1
    33    16    21   ar
    34    16    17   ar
    35    17    18   ar
    36    17    43    1
    37    18    19   ar
    38    18    44    1
    39    19    20   ar
    40    19    45    1
    41    20    21   ar
    42    20    46    1
    43    21    22    1
    44    23    27    1
    45    23    24    1
    46    24    25    1
    47    24    47    1
    48    24    48    1
    49    25    26    1
    50    25    49    1
    51    25    50    1
    52    26    27    1
    53    26    51    1
    54    26    52    1
@<TRIPOS>SUBSTRUCTURE
     1 ZINC000541568816        1 TEMP              0 ****  ****    0 ROOT


##########                                Name:    ZINC000066361645
##########                DOCK_Rotatable_Bonds:                   8
##########                         Heavy_Atoms:                  27
##########                    Molecular_Weight:             392.519
##########                DOCK_Rotatable_Bonds:                   8
##########                       Formal_Charge:           0.0100004
##########                     HBond_Acceptors:                   7
##########                        HBond_Donors:                   2
##########                         Heavy_Atoms:                  27
##########                          Grid_Score:          -34.122620
##########                     Grid_vdw_energy:          -34.933483
##########                      Grid_es_energy:            0.810862
##########           Internal_energy_repulsive:            7.500776

@<TRIPOS>MOLECULE
ZINC000066361645
 55 57 1 0 0
SMALL
USER_CHARGES


@<TRIPOS>ATOM
      1 C1        -14.4190   -6.5741   56.6702 C.3     1  ZINC000066361645   -0.1400
      2 S2        -14.4751   -4.8775   57.3098 S.3     1  ZINC000066361645   -0.1100
      3 C3        -13.4266   -4.0001   56.1984 C.ar    1  ZINC000066361645   -0.1200
      4 C4        -13.6778   -4.0320   54.8350 C.ar    1  ZINC000066361645   -0.1100
      5 C5        -12.8533   -3.3408   53.9591 C.ar    1  ZINC000066361645    0.0500
      6 C6        -11.7748   -2.6139   54.4480 C.ar    1  ZINC000066361645    0.0700
      7 C7        -11.5206   -2.5821   55.8114 C.ar    1  ZINC000066361645   -0.1100
      8 C8        -12.3459   -3.2677   56.6889 C.ar    1  ZINC000066361645    0.1800
      9 N9        -12.0878   -3.2342   58.0676 N.am    1  ZINC000066361645   -0.6600
     10 C10       -12.5801   -2.2312   58.8212 C.2     1  ZINC000066361645    0.5100
     11 O11       -13.2464   -1.3573   58.3075 O.2     1  ZINC000066361645   -0.5000
     12 C12       -12.3028   -2.1953   60.3020 C.3     1  ZINC000066361645   -0.1500
     13 C13       -11.1084   -1.2789   60.5751 C.3     1  ZINC000066361645    0.1600
     14 H14       -11.2234   -0.3540   60.0102 H       1  ZINC000066361645    0.1000
     15 C15        -9.8183   -1.9812   60.1466 C.3     1  ZINC000066361645   -0.1600
     16 N16       -11.0453   -0.9725   62.0063 N.am    1  ZINC000066361645   -0.7200
     17 C17       -10.5419    0.2069   62.4215 C.2     1  ZINC000066361645    0.5300
     18 O18       -10.1424    1.0149   61.6101 O.2     1  ZINC000066361645   -0.5400
     19 C19       -10.4754    0.5213   63.8938 C.3     1  ZINC000066361645   -0.1100
     20 C20        -9.1220    0.0745   64.4501 C.3     1  ZINC000066361645   -0.1100
     21 C21        -9.0545    0.3937   65.9449 C.3     1  ZINC000066361645   -0.1200
     22 C22        -9.2188    1.9007   66.1524 C.3     1  ZINC000066361645   -0.1200
     23 C23       -10.5722    2.3475   65.5961 C.3     1  ZINC000066361645   -0.1200
     24 C24       -10.6397    2.0283   64.1013 C.3     1  ZINC000066361645   -0.1000
     25 O25       -10.9596   -1.9232   53.6025 O.3     1  ZINC000066361645   -0.3000
     26 C26       -11.0197   -2.2783   52.2170 C.3     1  ZINC000066361645    0.0200
     27 C27       -12.4962   -2.3825   51.8114 C.3     1  ZINC000066361645    0.0200
     28 O28       -13.1138   -3.3872   52.6230 O.3     1  ZINC000066361645   -0.3100
     29 H29       -14.7895   -6.5884   55.6452 H       1  ZINC000066361645    0.0900
     30 H30       -13.3910   -6.9361   56.6901 H       1  ZINC000066361645    0.0900
     31 H31       -15.0427   -7.2173   57.2910 H       1  ZINC000066361645    0.1100
     32 H32       -14.5166   -4.5960   54.4544 H       1  ZINC000066361645    0.1400
     33 H33       -10.6805   -2.0190   56.1902 H       1  ZINC000066361645    0.1600
     34 H34       -11.5550   -3.9330   58.4783 H       1  ZINC000066361645    0.4100
     35 H35       -13.1795   -1.8156   60.8267 H       1  ZINC000066361645    0.1000
     36 H36       -12.0764   -3.2018   60.6538 H       1  ZINC000066361645    0.1200
     37 H37        -9.7033   -2.9062   60.7116 H       1  ZINC000066361645    0.0600
     38 H38        -9.8653   -2.2092   59.0818 H       1  ZINC000066361645    0.0700
     39 H39        -8.9674   -1.3284   60.3413 H       1  ZINC000066361645    0.0700
     40 H40       -11.3659   -1.6183   62.6553 H       1  ZINC000066361645    0.4000
     41 H41       -11.2744   -0.0064   64.4146 H       1  ZINC000066361645    0.1000
     42 H42        -9.0049   -0.9991   64.3023 H       1  ZINC000066361645    0.0600
     43 H43        -8.3229    0.6023   63.9294 H       1  ZINC000066361645    0.0700
     44 H44        -9.8535   -0.1340   66.4655 H       1  ZINC000066361645    0.0600
     45 H45        -8.0903    0.0755   66.3412 H       1  ZINC000066361645    0.0700
     46 H46        -9.1707    2.1281   67.2174 H       1  ZINC000066361645    0.0600
     47 H47        -8.4198    2.4285   65.6318 H       1  ZINC000066361645    0.0600
     48 H48       -11.3712    1.8197   66.1169 H       1  ZINC000066361645    0.0600
     49 H49       -10.6894    3.4211   65.7440 H       1  ZINC000066361645    0.0700
     50 H50        -9.8408    2.5560   63.5806 H       1  ZINC000066361645    0.0700
     51 H51       -11.6040    2.3466   63.7050 H       1  ZINC000066361645    0.0700
     52 H52       -10.5276   -1.5111   51.6191 H       1  ZINC000066361645    0.1300
     53 H53       -10.5272   -3.2383   52.0618 H       1  ZINC000066361645    0.0800
     54 H54       -12.9902   -1.4245   51.9729 H       1  ZINC000066361645    0.0800
     55 H55       -12.5699   -2.6623   50.7604 H       1  ZINC000066361645    0.1200
@<TRIPOS>BOND
     1     1     2    1
     2     1    29    1
     3     1    30    1
     4     1    31    1
     5     2     3    1
     6     3     8   ar
     7     3     4   ar
     8     4     5   ar
     9     4    32    1
    10     5    28    1
    11     5     6   ar
    12     6     7   ar
    13     6    25    1
    14     7     8   ar
    15     7    33    1
    16     8     9    1
    17     9    10   am
    18     9    34    1
    19    10    11    2
    20    10    12    1
    21    12    13    1
    22    12    35    1
    23    12    36    1
    24    13    14    1
    25    13    15    1
    26    13    16    1
    27    15    37    1
    28    15    38    1
    29    15    39    1
    30    16    17   am
    31    16    40    1
    32    17    18    2
    33    17    19    1
    34    19    24    1
    35    19    20    1
    36    19    41    1
    37    20    21    1
    38    20    42    1
    39    20    43    1
    40    21    22    1
    41    21    44    1
    42    21    45    1
    43    22    23    1
    44    22    46    1
    45    22    47    1
    46    23    24    1
    47    23    48    1
    48    23    49    1
    49    24    50    1
    50    24    51    1
    51    25    26    1
    52    26    27    1
    53    26    52    1
    54    26    53    1
    55    27    28    1
    56    27    54    1
    57    27    55    1
@<TRIPOS>SUBSTRUCTURE
     1 ZINC000066361645        1 TEMP              0 ****  ****    0 ROOT


##########                                Name:    ZINC001386869844
##########                DOCK_Rotatable_Bonds:                   9
##########                         Heavy_Atoms:                  25
##########                    Molecular_Weight:             345.485
##########                DOCK_Rotatable_Bonds:                   9
##########                       Formal_Charge:          -0.0300003
##########                     HBond_Acceptors:                   5
##########                        HBond_Donors:                   2
##########                         Heavy_Atoms:                  25
##########                          Grid_Score:          -34.119957
##########                     Grid_vdw_energy:          -31.592842
##########                      Grid_es_energy:           -2.527115
##########           Internal_energy_repulsive:           38.491444

@<TRIPOS>MOLECULE
ZINC001386869844
 56 58 1 0 0
SMALL
USER_CHARGES


@<TRIPOS>ATOM
      1 C1        -10.3414   -2.3037   58.4219 C.3     1  ZINC001386869844    0.0600
      2 N2        -10.2817   -1.4317   59.5977 N.am    1  ZINC001386869844   -0.6200
      3 C3        -10.2428    0.0230   59.4294 C.3     1  ZINC001386869844    0.1100
      4 C4         -9.5125    0.3668   58.1297 C.3     1  ZINC001386869844    0.1000
      5 N5         -9.0502    1.7560   58.1821 N.am    1  ZINC001386869844   -0.7300
      6 C6         -8.3565    2.2748   57.1495 C.2     1  ZINC001386869844    0.5200
      7 O7         -8.1106    1.5900   56.1792 O.2     1  ZINC001386869844   -0.5300
      8 C8         -7.8810    3.7038   57.2035 C.3     1  ZINC001386869844   -0.1300
      9 C9         -6.4392    3.7808   56.6972 C.3     1  ZINC001386869844   -0.0100
     10 C10        -6.4326    3.7345   55.1679 C.3     1  ZINC001386869844   -0.1500
     11 C11        -5.8017    5.0886   57.1706 C.3     1  ZINC001386869844   -0.1600
     12 C12        -5.6418    2.5964   57.2468 C.3     1  ZINC001386869844   -0.1500
     13 C13        -4.4449    2.9077   58.1476 C.3     1  ZINC001386869844   -0.1900
     14 C14        -4.2183    2.3987   56.7219 C.3     1  ZINC001386869844   -0.1800
     15 C15       -10.2624   -1.9679   60.8340 C.2     1  ZINC001386869844    0.5900
     16 O16       -10.2947   -3.1763   60.9737 O.2     1  ZINC001386869844   -0.5200
     17 C17       -10.2024   -1.0948   62.0112 C.2     1  ZINC001386869844   -0.0600
     18 C18       -11.1956   -0.2385   62.4426 C.2     1  ZINC001386869844   -0.0900
     19 C19       -10.7194    0.3916   63.5895 C.2     1  ZINC001386869844   -0.1700
     20 C20        -9.4676   -0.0771   63.8382 C.2     1  ZINC001386869844    0.0500
     21 C21        -8.6164    0.3735   65.0015 C.3     1  ZINC001386869844   -0.0600
     22 C22        -9.2011    1.6796   65.5520 C.3     1  ZINC001386869844   -0.1100
     23 C23       -10.7038    1.5073   65.7897 C.3     1  ZINC001386869844   -0.1200
     24 C24       -11.4272    1.4162   64.4406 C.3     1  ZINC001386869844   -0.0500
     25 N25        -9.1471   -0.9851   62.8903 N.pl3   1  ZINC001386869844   -0.5400
     26 H26        -9.3364   -2.6408   58.1681 H       1  ZINC001386869844    0.0600
     27 H27       -10.9696   -3.1670   58.6414 H       1  ZINC001386869844    0.0800
     28 H28       -10.7627   -1.7521   57.5815 H       1  ZINC001386869844    0.0900
     29 H29        -9.7165    0.4722   60.2717 H       1  ZINC001386869844    0.1000
     30 H30       -11.2605    0.4113   59.3880 H       1  ZINC001386869844    0.0900
     31 H31       -10.1924    0.2418   57.2870 H       1  ZINC001386869844    0.0700
     32 H32        -8.6564   -0.2967   58.0075 H       1  ZINC001386869844    0.0700
     33 H33        -9.2433    2.3024   58.9600 H       1  ZINC001386869844    0.4000
     34 H34        -8.5204    4.3234   56.5749 H       1  ZINC001386869844    0.0900
     35 H35        -7.9246    4.0627   58.2317 H       1  ZINC001386869844    0.0900
     36 H36        -7.0007    4.5782   54.7764 H       1  ZINC001386869844    0.0800
     37 H37        -5.4054    3.7894   54.8073 H       1  ZINC001386869844    0.0500
     38 H38        -6.8868    2.8028   54.8306 H       1  ZINC001386869844    0.0500
     39 H39        -5.8064    5.1216   58.2600 H       1  ZINC001386869844    0.0500
     40 H40        -4.7745    5.1435   56.8100 H       1  ZINC001386869844    0.0500
     41 H41        -6.3698    5.9324   56.7790 H       1  ZINC001386869844    0.0800
     42 H42        -6.2232    1.7028   57.4735 H       1  ZINC001386869844    0.1000
     43 H43        -4.2255    3.9563   58.3486 H       1  ZINC001386869844    0.1000
     44 H44        -4.2387    2.2187   58.9667 H       1  ZINC001386869844    0.0900
     45 H45        -3.8631    1.3749   56.6036 H       1  ZINC001386869844    0.0900
     46 H46        -3.8499    3.1124   55.9850 H       1  ZINC001386869844    0.0900
     47 H47       -12.1588   -0.0859   61.9785 H       1  ZINC001386869844    0.1500
     48 H48        -8.6253   -0.3894   65.7800 H       1  ZINC001386869844    0.0800
     49 H49        -7.5938    0.5427   64.6643 H       1  ZINC001386869844    0.0800
     50 H50        -8.7108    1.9287   66.4930 H       1  ZINC001386869844    0.0700
     51 H51        -9.0368    2.4824   64.8334 H       1  ZINC001386869844    0.0700
     52 H52       -10.8794    0.5943   66.3586 H       1  ZINC001386869844    0.0600
     53 H53       -11.0836    2.3625   66.3487 H       1  ZINC001386869844    0.0700
     54 H54       -11.4021    2.3863   63.9443 H       1  ZINC001386869844    0.0700
     55 H55       -12.4616    1.1108   64.5985 H       1  ZINC001386869844    0.0700
     56 H56        -8.3123   -1.4762   62.8365 H       1  ZINC001386869844    0.4200
@<TRIPOS>BOND
     1     1     2    1
     2     1    26    1
     3     1    27    1
     4     1    28    1
     5     2     3    1
     6     2    15   am
     7     3     4    1
     8     3    29    1
     9     3    30    1
    10     4     5    1
    11     4    31    1
    12     4    32    1
    13     5     6   am
    14     5    33    1
    15     6     7    2
    16     6     8    1
    17     8     9    1
    18     8    34    1
    19     8    35    1
    20     9    10    1
    21     9    11    1
    22     9    12    1
    23    10    36    1
    24    10    37    1
    25    10    38    1
    26    11    39    1
    27    11    40    1
    28    11    41    1
    29    12    14    1
    30    12    13    1
    31    12    42    1
    32    13    14    1
    33    13    43    1
    34    13    44    1
    35    14    45    1
    36    14    46    1
    37    15    16    2
    38    15    17    1
    39    17    25    1
    40    17    18    2
    41    18    19    1
    42    18    47    1
    43    19    24    1
    44    19    20    2
    45    20    21    1
    46    20    25    1
    47    21    22    1
    48    21    48    1
    49    21    49    1
    50    22    23    1
    51    22    50    1
    52    22    51    1
    53    23    24    1
    54    23    52    1
    55    23    53    1
    56    24    54    1
    57    24    55    1
    58    25    56    1
@<TRIPOS>SUBSTRUCTURE
     1 ZINC001386869844        1 TEMP              0 ****  ****    0 ROOT


##########                                Name:    ZINC000847397179
##########                DOCK_Rotatable_Bonds:                   9
##########                         Heavy_Atoms:                  25
##########                    Molecular_Weight:             350.461
##########                DOCK_Rotatable_Bonds:                   9
##########                       Formal_Charge:          0.00999979
##########                     HBond_Acceptors:                   7
##########                        HBond_Donors:                   2
##########                         Heavy_Atoms:                  25
##########                          Grid_Score:          -34.111034
##########                     Grid_vdw_energy:          -33.232441
##########                      Grid_es_energy:           -0.878593
##########           Internal_energy_repulsive:           87.246338

@<TRIPOS>MOLECULE
ZINC000847397179
 55 56 1 0 0
SMALL
USER_CHARGES


@<TRIPOS>ATOM
      1 C1         -9.5415    3.9889   57.5626 C.3     1  ZINC000847397179   -0.1500
      2 C2         -8.2969    3.1029   57.4810 C.3     1  ZINC000847397179   -0.1000
      3 H3         -7.7891    3.1000   58.4455 H       1  ZINC000847397179    0.0900
      4 C4         -7.3518    3.6487   56.4088 C.3     1  ZINC000847397179   -0.0200
      5 C5         -5.9726    3.0784   56.6173 C.2     1  ZINC000847397179    0.0100
      6 C6         -5.0663    2.8266   55.6536 C.2     1  ZINC000847397179   -0.0500
      7 N7         -3.9578    2.3184   56.2754 N.pl3   1  ZINC000847397179   -0.5700
      8 C8         -4.2254    2.2773   57.5983 C.2     1  ZINC000847397179    0.1800
      9 N9         -5.4303    2.7380   57.7959 N.2     1  ZINC000847397179   -0.4900
     10 C10        -8.7040    1.6967   57.1232 C.2     1  ZINC000847397179    0.5200
     11 O11        -7.9876    1.0191   56.4171 O.2     1  ZINC000847397179   -0.5300
     12 N12        -9.8640    1.1921   57.5881 N.am    1  ZINC000847397179   -0.7400
     13 C13       -10.2606   -0.1742   57.2388 C.3     1  ZINC000847397179    0.1200
     14 C14        -9.8567   -1.1264   58.3662 C.3     1  ZINC000847397179    0.1500
     15 H15        -8.7698   -1.1792   58.4282 H       1  ZINC000847397179    0.0800
     16 C16       -10.4228   -0.6176   59.6957 C.3     1  ZINC000847397179   -0.1300
     17 C17       -10.1351   -1.6435   60.7942 C.3     1  ZINC000847397179   -0.1200
     18 C18       -10.8229   -2.9670   60.4513 C.3     1  ZINC000847397179   -0.1400
     19 C19       -10.2613   -3.5025   59.1305 C.3     1  ZINC000847397179    0.1100
     20 N20       -10.4004   -2.4650   58.0989 N.am    1  ZINC000847397179   -0.5900
     21 C21       -11.0191   -2.7350   56.9325 C.2     1  ZINC000847397179    0.6500
     22 O22       -11.1277   -1.8685   56.0876 O.2     1  ZINC000847397179   -0.5500
     23 O23       -11.5169   -3.9647   56.7033 O.3     1  ZINC000847397179   -0.3600
     24 C24       -12.9411   -4.0604   56.4373 C.3     1  ZINC000847397179    0.1400
     25 C25       -13.6928   -3.0599   57.3175 C.3     1  ZINC000847397179   -0.1800
     26 C26       -13.2072   -3.7443   54.9642 C.3     1  ZINC000847397179   -0.1400
     27 C27       -13.4242   -5.4782   56.7500 C.3     1  ZINC000847397179   -0.1800
     28 H28       -10.0493    3.9920   56.5982 H       1  ZINC000847397179    0.0500
     29 H29       -10.2149    3.6001   58.3266 H       1  ZINC000847397179    0.0500
     30 H30        -9.2471    5.0061   57.8214 H       1  ZINC000847397179    0.1000
     31 H31        -7.7177    3.3633   55.4225 H       1  ZINC000847397179    0.0800
     32 H32        -7.3102    4.7356   56.4803 H       1  ZINC000847397179    0.0800
     33 H33        -5.1903    2.9932   54.5937 H       1  ZINC000847397179    0.1800
     34 H34        -3.1339    2.0397   55.8458 H       1  ZINC000847397179    0.4200
     35 H35        -3.5523    1.9253   58.3661 H       1  ZINC000847397179    0.2100
     36 H36       -10.4363    1.7337   58.1538 H       1  ZINC000847397179    0.3900
     37 H37       -11.3407   -0.2145   57.0986 H       1  ZINC000847397179    0.0800
     38 H38        -9.7631   -0.4723   56.3159 H       1  ZINC000847397179    0.1000
     39 H39        -9.9521    0.3316   59.9520 H       1  ZINC000847397179    0.0800
     40 H40       -11.4997   -0.4767   59.6025 H       1  ZINC000847397179    0.0700
     41 H41        -9.0594   -1.8024   60.8700 H       1  ZINC000847397179    0.0700
     42 H42       -10.5153   -1.2726   61.7460 H       1  ZINC000847397179    0.0700
     43 H43       -10.6371   -3.6901   61.2454 H       1  ZINC000847397179    0.0800
     44 H44       -11.8960   -2.8040   60.3509 H       1  ZINC000847397179    0.0700
     45 H45        -9.2076   -3.7514   59.2556 H       1  ZINC000847397179    0.0700
     46 H46       -10.8160   -4.3919   58.8314 H       1  ZINC000847397179    0.0900
     47 H47       -13.3487   -2.0499   57.0949 H       1  ZINC000847397179    0.0600
     48 H48       -14.7619   -3.1318   57.1179 H       1  ZINC000847397179    0.0700
     49 H49       -13.5032   -3.2851   58.3671 H       1  ZINC000847397179    0.0900
     50 H50       -12.6718   -4.4572   54.3371 H       1  ZINC000847397179    0.0700
     51 H51       -14.2764   -3.8161   54.7646 H       1  ZINC000847397179    0.0800
     52 H52       -12.8632   -2.7343   54.7415 H       1  ZINC000847397179    0.0700
     53 H53       -13.2346   -5.7034   57.7996 H       1  ZINC000847397179    0.0900
     54 H54       -14.4933   -5.5501   56.5504 H       1  ZINC000847397179    0.0700
     55 H55       -12.8887   -6.1910   56.1229 H       1  ZINC000847397179    0.0600
@<TRIPOS>BOND
     1     1     2    1
     2     1    28    1
     3     1    29    1
     4     1    30    1
     5     2     3    1
     6     2     4    1
     7     2    10    1
     8     4     5    1
     9     4    31    1
    10     4    32    1
    11     5     9    1
    12     5     6    2
    13     6     7    1
    14     6    33    1
    15     7     8    1
    16     7    34    1
    17     8     9    2
    18     8    35    1
    19    10    11    2
    20    10    12   am
    21    12    13    1
    22    12    36    1
    23    13    14    1
    24    13    37    1
    25    13    38    1
    26    14    15    1
    27    14    20    1
    28    14    16    1
    29    16    17    1
    30    16    39    1
    31    16    40    1
    32    17    18    1
    33    17    41    1
    34    17    42    1
    35    18    19    1
    36    18    43    1
    37    18    44    1
    38    19    20    1
    39    19    45    1
    40    19    46    1
    41    20    21   am
    42    21    22    2
    43    21    23    1
    44    23    24    1
    45    24    25    1
    46    24    26    1
    47    24    27    1
    48    25    47    1
    49    25    48    1
    50    25    49    1
    51    26    50    1
    52    26    51    1
    53    26    52    1
    54    27    53    1
    55    27    54    1
    56    27    55    1
@<TRIPOS>SUBSTRUCTURE
     1 ZINC000847397179        1 TEMP              0 ****  ****    0 ROOT


##########                                Name:    ZINC000076573199
##########                DOCK_Rotatable_Bonds:                  10
##########                         Heavy_Atoms:                  24
##########                    Molecular_Weight:             333.431
##########                DOCK_Rotatable_Bonds:                  10
##########                       Formal_Charge:          -0.0200009
##########                     HBond_Acceptors:                   6
##########                        HBond_Donors:                   3
##########                         Heavy_Atoms:                  24
##########                          Grid_Score:          -34.107433
##########                     Grid_vdw_energy:          -29.587940
##########                      Grid_es_energy:           -4.519492
##########           Internal_energy_repulsive:           12.876779

@<TRIPOS>MOLECULE
ZINC000076573199
 51 51 1 0 0
SMALL
USER_CHARGES


@<TRIPOS>ATOM
      1 C1         -1.3190    4.3122   67.0487 C.3     1  ZINC000076573199   -0.1500
      2 C2         -2.3818    4.1975   65.9539 C.3     1  ZINC000076573199   -0.1200
      3 C3         -2.8740    2.7512   65.8705 C.3     1  ZINC000076573199   -0.1000
      4 H4         -2.9802    2.3450   66.8763 H       1  ZINC000076573199    0.0700
      5 C5         -1.8629    1.9130   65.0859 C.3     1  ZINC000076573199   -0.1500
      6 C6         -4.2284    2.7137   65.1597 C.3     1  ZINC000076573199   -0.1200
      7 C7         -5.3097    2.2677   66.1459 C.3     1  ZINC000076573199    0.1400
      8 H8         -4.9073    1.4957   66.8017 H       1  ZINC000076573199    0.1000
      9 C9         -5.7603    3.4653   66.9847 C.3     1  ZINC000076573199   -0.1700
     10 N10        -6.4546    1.7315   65.4056 N.am    1  ZINC000076573199   -0.6900
     11 C11        -7.1821    0.7237   65.9269 C.2     1  ZINC000076573199    0.5100
     12 O12        -6.8878    0.2595   67.0090 O.2     1  ZINC000076573199   -0.5100
     13 C13        -8.3503    0.1783   65.1731 C.2     1  ZINC000076573199    0.5100
     14 O14        -8.9268   -0.8098   65.5789 O.2     1  ZINC000076573199   -0.5000
     15 N15        -8.7644    0.7832   64.0421 N.am    1  ZINC000076573199   -0.6400
     16 C16        -9.8573    0.2730   63.3369 C.ar    1  ZINC000076573199    0.1500
     17 C17       -11.0823    0.9275   63.3834 C.ar    1  ZINC000076573199   -0.1300
     18 C18       -12.1632    0.4235   62.6857 C.ar    1  ZINC000076573199   -0.0800
     19 C19       -12.0302   -0.7318   61.9401 C.ar    1  ZINC000076573199   -0.1200
     20 C20       -13.2118   -1.2775   61.1805 C.3     1  ZINC000076573199   -0.1100
     21 C21       -10.8081   -1.3912   61.8894 C.ar    1  ZINC000076573199    0.1600
     22 N22       -10.6746   -2.5613   61.1339 N.am    1  ZINC000076573199   -0.6700
     23 C23        -9.8384   -2.5894   60.0772 C.2     1  ZINC000076573199    0.5100
     24 C24        -9.6945   -3.8496   59.2634 C.3     1  ZINC000076573199   -0.1700
     25 O25        -9.2018   -1.6004   59.7811 O.2     1  ZINC000076573199   -0.5200
     26 C26        -9.7193   -0.8853   62.5842 C.ar    1  ZINC000076573199   -0.1400
     27 H27        -0.4812    3.6563   66.8117 H       1  ZINC000076573199    0.0600
     28 H28        -0.9684    5.3425   67.1082 H       1  ZINC000076573199    0.0500
     29 H29        -1.7502    4.0193   68.0059 H       1  ZINC000076573199    0.0500
     30 H30        -3.2195    4.8533   66.1910 H       1  ZINC000076573199    0.0600
     31 H31        -1.9505    4.4904   64.9968 H       1  ZINC000076573199    0.0600
     32 H32        -1.8182    2.2675   64.0561 H       1  ZINC000076573199    0.0600
     33 H33        -0.8788    2.0066   65.5454 H       1  ZINC000076573199    0.0600
     34 H34        -2.1710    0.8676   65.0971 H       1  ZINC000076573199    0.0500
     35 H35        -4.4684    3.7078   64.7825 H       1  ZINC000076573199    0.0800
     36 H36        -4.1828    2.0107   64.3279 H       1  ZINC000076573199    0.0700
     37 H37        -6.5307    3.1475   67.6873 H       1  ZINC000076573199    0.0600
     38 H38        -4.9085    3.8642   67.5355 H       1  ZINC000076573199    0.0700
     39 H39        -6.1628    4.2374   66.3289 H       1  ZINC000076573199    0.0600
     40 H40        -6.6891    2.1018   64.5403 H       1  ZINC000076573199    0.4100
     41 H41        -8.3037    1.5729   63.7178 H       1  ZINC000076573199    0.4200
     42 H42       -11.1895    1.8307   63.9657 H       1  ZINC000076573199    0.1400
     43 H43       -13.1143    0.9337   62.7238 H       1  ZINC000076573199    0.1300
     44 H44       -13.2285   -0.8495   60.1782 H       1  ZINC000076573199    0.0700
     45 H45       -13.1297   -2.3621   61.1111 H       1  ZINC000076573199    0.0600
     46 H46       -14.1320   -1.0155   61.7028 H       1  ZINC000076573199    0.0700
     47 H47       -11.1837   -3.3523   61.3705 H       1  ZINC000076573199    0.4100
     48 H48       -10.6619   -4.1218   58.8411 H       1  ZINC000076573199    0.0900
     49 H49        -8.9804   -3.6820   58.4572 H       1  ZINC000076573199    0.1000
     50 H50        -9.3375   -4.6565   59.9033 H       1  ZINC000076573199    0.0900
     51 H51        -8.7684   -1.3960   62.5463 H       1  ZINC000076573199    0.1400
@<TRIPOS>BOND
     1     1     2    1
     2     1    27    1
     3     1    28    1
     4     1    29    1
     5     2     3    1
     6     2    30    1
     7     2    31    1
     8     3     4    1
     9     3     5    1
    10     3     6    1
    11     5    32    1
    12     5    33    1
    13     5    34    1
    14     6     7    1
    15     6    35    1
    16     6    36    1
    17     7     8    1
    18     7     9    1
    19     7    10    1
    20     9    37    1
    21     9    38    1
    22     9    39    1
    23    10    11   am
    24    10    40    1
    25    11    12    2
    26    11    13    1
    27    13    14    2
    28    13    15   am
    29    15    16    1
    30    15    41    1
    31    16    26   ar
    32    16    17   ar
    33    17    18   ar
    34    17    42    1
    35    18    19   ar
    36    18    43    1
    37    19    20    1
    38    19    21   ar
    39    20    44    1
    40    20    45    1
    41    20    46    1
    42    21    22    1
    43    21    26   ar
    44    22    23   am
    45    22    47    1
    46    23    24    1
    47    23    25    2
    48    24    48    1
    49    24    49    1
    50    24    50    1
    51    26    51    1
@<TRIPOS>SUBSTRUCTURE
     1 ZINC000076573199        1 TEMP              0 ****  ****    0 ROOT


##########                                Name:    ZINC000821177065
##########                DOCK_Rotatable_Bonds:                  10
##########                         Heavy_Atoms:                  25
##########                    Molecular_Weight:             341.413
##########                DOCK_Rotatable_Bonds:                  10
##########                       Formal_Charge:          0.00999917
##########                     HBond_Acceptors:                   7
##########                        HBond_Donors:                   3
##########                         Heavy_Atoms:                  25
##########                          Grid_Score:          -34.100445
##########                     Grid_vdw_energy:          -33.285614
##########                      Grid_es_energy:           -0.814831
##########           Internal_energy_repulsive:           14.827535

@<TRIPOS>MOLECULE
ZINC000821177065
 48 51 1 0 0
SMALL
USER_CHARGES


@<TRIPOS>ATOM
      1 O1        -11.4455   -0.5564   54.0532 O.2     1  ZINC000821177065   -0.5600
      2 C2        -10.8127   -1.0872   53.1609 C.2     1  ZINC000821177065    0.7100
      3 N3        -10.1321   -0.3320   52.2761 N.am    1  ZINC000821177065   -0.7300
      4 C4        -10.1595    1.1287   52.3860 C.3     1  ZINC000821177065    0.1200
      5 C5         -8.7381    1.6503   52.6063 C.3     1  ZINC000821177065    0.1900
      6 O6         -8.6358    2.9826   52.0996 O.3     1  ZINC000821177065   -0.5400
      7 C7         -8.4201    1.6479   54.1028 C.3     1  ZINC000821177065   -0.1500
      8 C8         -7.7377    2.8888   54.6820 C.3     1  ZINC000821177065   -0.1600
      9 C9         -9.2093    2.6090   54.9942 C.3     1  ZINC000821177065   -0.1700
     10 C10        -7.7442    0.7478   51.8723 C.3     1  ZINC000821177065   -0.1800
     11 C11        -7.4761    1.0461   50.3959 C.3     1  ZINC000821177065   -0.1900
     12 C12        -6.4106    1.3651   51.4464 C.3     1  ZINC000821177065   -0.1700
     13 N13       -10.7874   -2.4309   53.0597 N.am    1  ZINC000821177065   -0.6500
     14 C14       -11.4954   -3.2165   53.9801 C.2     1  ZINC000821177065    0.3200
     15 N15       -11.1447   -3.4528   55.2222 N.2     1  ZINC000821177065   -0.3200
     16 N16       -12.1165   -4.2791   55.8009 N.pl3   1  ZINC000821177065   -0.3600
     17 C17       -12.1103   -4.7814   57.1770 C.3     1  ZINC000821177065    0.1900
     18 C18       -11.2834   -3.8658   58.0424 C.ar    1  ZINC000821177065    0.1100
     19 C19       -11.6997   -2.5653   58.2535 C.ar    1  ZINC000821177065   -0.1500
     20 C20       -10.9318   -1.7310   59.0517 C.ar    1  ZINC000821177065   -0.0700
     21 C21        -9.7689   -2.2388   59.6098 C.ar    1  ZINC000821177065   -0.1700
     22 C22        -9.4160   -3.5506   59.3540 C.ar    1  ZINC000821177065    0.1000
     23 N23       -10.1734   -4.3168   58.5938 N.ar    1  ZINC000821177065   -0.4700
     24 C24       -13.0599   -4.5309   54.8691 C.2     1  ZINC000821177065    0.0700
     25 C25       -12.7066   -3.8831   53.7357 C.2     1  ZINC000821177065   -0.2600
     26 H26        -9.6240   -0.7555   51.5666 H       1  ZINC000821177065    0.4000
     27 H27       -10.5646    1.5546   51.4680 H       1  ZINC000821177065    0.0700
     28 H28       -10.7873    1.4179   53.2287 H       1  ZINC000821177065    0.0800
     29 H29        -7.7391    3.3439   52.1214 H       1  ZINC000821177065    0.3800
     30 H30        -8.1472    0.6802   54.5239 H       1  ZINC000821177065    0.1100
     31 H31        -7.0155    2.7377   55.4843 H       1  ZINC000821177065    0.0900
     32 H32        -7.5154    3.7068   53.9970 H       1  ZINC000821177065    0.1100
     33 H33        -9.9549    3.2430   54.5145 H       1  ZINC000821177065    0.1000
     34 H34        -9.4551    2.2738   56.0018 H       1  ZINC000821177065    0.0900
     35 H35        -7.7386   -0.2966   52.1842 H       1  ZINC000821177065    0.1100
     36 H36        -7.2942    0.1979   49.7360 H       1  ZINC000821177065    0.1000
     37 H37        -8.0077    1.8853   49.9473 H       1  ZINC000821177065    0.1100
     38 H38        -6.2412    2.4142   51.6891 H       1  ZINC000821177065    0.0900
     39 H39        -5.5276    0.7267   51.4778 H       1  ZINC000821177065    0.1000
     40 H40       -10.2794   -2.8544   52.3502 H       1  ZINC000821177065    0.4100
     41 H41       -13.1317   -4.8152   57.5562 H       1  ZINC000821177065    0.1000
     42 H42       -11.6824   -5.7838   57.1960 H       1  ZINC000821177065    0.1200
     43 H43       -12.6116   -2.2029   57.8022 H       1  ZINC000821177065    0.1400
     44 H44       -11.2323   -0.7097   59.2340 H       1  ZINC000821177065    0.1400
     45 H45        -9.1462   -1.6174   60.2365 H       1  ZINC000821177065    0.1400
     46 H46        -8.5113   -3.9537   59.7847 H       1  ZINC000821177065    0.1600
     47 H47       -13.9424   -5.1380   55.0058 H       1  ZINC000821177065    0.1800
     48 H48       -13.2552   -3.8844   52.8054 H       1  ZINC000821177065    0.1700
@<TRIPOS>BOND
     1     1     2    2
     2     2     3   am
     3     2    13   am
     4     3     4    1
     5     3    26    1
     6     4     5    1
     7     4    27    1
     8     4    28    1
     9     5     6    1
    10     5     7    1
    11     5    10    1
    12     6    29    1
    13     7     9    1
    14     7     8    1
    15     7    30    1
    16     8     9    1
    17     8    31    1
    18     8    32    1
    19     9    33    1
    20     9    34    1
    21    10    12    1
    22    10    11    1
    23    10    35    1
    24    11    12    1
    25    11    36    1
    26    11    37    1
    27    12    38    1
    28    12    39    1
    29    13    14    1
    30    13    40    1
    31    14    25    1
    32    14    15    2
    33    15    16    1
    34    16    17    1
    35    16    24    1
    36    17    18    1
    37    17    41    1
    38    17    42    1
    39    18    23   ar
    40    18    19   ar
    41    19    20   ar
    42    19    43    1
    43    20    21   ar
    44    20    44    1
    45    21    22   ar
    46    21    45    1
    47    22    23   ar
    48    22    46    1
    49    24    25    2
    50    24    47    1
    51    25    48    1
@<TRIPOS>SUBSTRUCTURE
     1 ZINC000821177065        1 TEMP              0 ****  ****    0 ROOT


##########                                Name:    ZINC000015179664
##########                DOCK_Rotatable_Bonds:                   8
##########                         Heavy_Atoms:                  25
##########                    Molecular_Weight:             361.422
##########                DOCK_Rotatable_Bonds:                   8
##########                       Formal_Charge:        -2.23517e-07
##########                     HBond_Acceptors:                   8
##########                        HBond_Donors:                   1
##########                         Heavy_Atoms:                  25
##########                          Grid_Score:          -34.080421
##########                     Grid_vdw_energy:          -33.646679
##########                      Grid_es_energy:           -0.433741
##########           Internal_energy_repulsive:           28.110823

@<TRIPOS>MOLECULE
ZINC000015179664
 44 45 1 0 0
SMALL
USER_CHARGES


@<TRIPOS>ATOM
      1 C1        -11.5809   -4.5012   52.5933 C.3     1  ZINC000015179664   -0.1600
      2 C2        -12.5948   -3.4767   53.1066 C.3     1  ZINC000015179664    0.1800
      3 H3        -13.4382   -3.4238   52.4183 H       1  ZINC000015179664    0.1200
      4 C4        -11.9379   -2.1237   53.2012 C.ar    1  ZINC000015179664   -0.1000
      5 C5        -12.5895   -1.0818   53.8337 C.ar    1  ZINC000015179664   -0.0700
      6 C6        -11.9866    0.1595   53.9205 C.ar    1  ZINC000015179664   -0.1200
      7 C7        -10.7323    0.3583   53.3750 C.ar    1  ZINC000015179664   -0.0500
      8 C8        -10.0801   -0.6843   52.7432 C.ar    1  ZINC000015179664   -0.0400
      9 N9         -8.7370   -0.4713   52.1587 N.pl3   1  ZINC000015179664    0.0300
     10 O10        -8.2064    0.6224   52.2344 O.2     1  ZINC000015179664   -0.1600
     11 O11        -8.1625   -1.3898   51.6020 O.2     1  ZINC000015179664   -0.1500
     12 C12       -10.6809   -1.9263   52.6602 C.ar    1  ZINC000015179664   -0.0400
     13 N13       -13.0705   -3.8821   54.4317 N.am    1  ZINC000015179664   -0.6100
     14 C14       -14.4574   -4.3192   54.6100 C.3     1  ZINC000015179664    0.0600
     15 C15       -12.2321   -3.8532   55.4865 C.2     1  ZINC000015179664    0.5200
     16 O16       -11.0835   -3.4928   55.3386 O.2     1  ZINC000015179664   -0.5200
     17 C17       -12.7218   -4.2686   56.8498 C.3     1  ZINC000015179664   -0.1500
     18 C18       -11.5455   -4.2960   57.8278 C.3     1  ZINC000015179664    0.1300
     19 N19       -11.3946   -2.9771   58.4474 N.am    1  ZINC000015179664   -0.7300
     20 C20       -10.8253   -2.8651   59.6637 C.2     1  ZINC000015179664    0.5800
     21 O21       -10.4381   -3.8592   60.2480 O.2     1  ZINC000015179664   -0.5300
     22 C22       -10.6720   -1.5397   60.2854 C.2     1  ZINC000015179664   -0.1500
     23 C23       -11.1869   -0.3983   59.7545 C.2     1  ZINC000015179664   -0.2200
     24 S24       -10.8193    0.9458   60.7358 S.3     1  ZINC000015179664    0.1900
     25 C25        -9.9491   -0.0436   61.8952 C.2     1  ZINC000015179664   -0.2300
     26 C26        -9.9646   -1.3186   61.5251 C.2     1  ZINC000015179664   -0.0900
     27 H27       -11.2270   -4.1995   51.6075 H       1  ZINC000015179664    0.0800
     28 H28       -10.7374   -4.5540   53.2817 H       1  ZINC000015179664    0.0600
     29 H29       -12.0561   -5.4797   52.5250 H       1  ZINC000015179664    0.0700
     30 H30       -13.5695   -1.2370   54.2598 H       1  ZINC000015179664    0.1500
     31 H31       -12.4961    0.9739   54.4140 H       1  ZINC000015179664    0.1500
     32 H32       -10.2618    1.3280   53.4422 H       1  ZINC000015179664    0.1600
     33 H33       -10.1715   -2.7407   52.1667 H       1  ZINC000015179664    0.1600
     34 H34       -14.5287   -5.3895   54.4170 H       1  ZINC000015179664    0.0600
     35 H35       -14.7749   -4.1123   55.6320 H       1  ZINC000015179664    0.0800
     36 H36       -15.1004   -3.7807   53.9137 H       1  ZINC000015179664    0.0800
     37 H37       -13.4689   -3.5564   57.2000 H       1  ZINC000015179664    0.1000
     38 H38       -13.1670   -5.2616   56.7890 H       1  ZINC000015179664    0.1000
     39 H39       -11.7331   -5.0413   58.6008 H       1  ZINC000015179664    0.0800
     40 H40       -10.6322   -4.5517   57.2906 H       1  ZINC000015179664    0.0800
     41 H41       -11.7044   -2.1843   57.9820 H       1  ZINC000015179664    0.4000
     42 H42       -11.7522   -0.3503   58.8354 H       1  ZINC000015179664    0.1700
     43 H43        -9.4709    0.3319   62.7878 H       1  ZINC000015179664    0.1700
     44 H44        -9.4905   -2.1082   62.0890 H       1  ZINC000015179664    0.1600
@<TRIPOS>BOND
     1     1     2    1
     2     1    27    1
     3     1    28    1
     4     1    29    1
     5     2     3    1
     6     2     4    1
     7     2    13    1
     8     4    12   ar
     9     4     5   ar
    10     5     6   ar
    11     5    30    1
    12     6     7   ar
    13     6    31    1
    14     7     8   ar
    15     7    32    1
    16     8     9    1
    17     8    12   ar
    18     9    10    2
    19     9    11    2
    20    12    33    1
    21    13    14    1
    22    13    15   am
    23    14    34    1
    24    14    35    1
    25    14    36    1
    26    15    16    2
    27    15    17    1
    28    17    18    1
    29    17    37    1
    30    17    38    1
    31    18    19    1
    32    18    39    1
    33    18    40    1
    34    19    20   am
    35    19    41    1
    36    20    21    2
    37    20    22    1
    38    22    26    1
    39    22    23    2
    40    23    24    1
    41    23    42    1
    42    24    25    1
    43    25    26    2
    44    25    43    1
    45    26    44    1
@<TRIPOS>SUBSTRUCTURE
     1 ZINC000015179664        1 TEMP              0 ****  ****    0 ROOT


##########                                Name:    ZINC000942890482
##########                DOCK_Rotatable_Bonds:                   8
##########                         Heavy_Atoms:                  25
##########                    Molecular_Weight:             346.445
##########                DOCK_Rotatable_Bonds:                   8
##########                       Formal_Charge:          -0.0100004
##########                     HBond_Acceptors:                   5
##########                        HBond_Donors:                   0
##########                         Heavy_Atoms:                  25
##########                          Grid_Score:          -34.077896
##########                     Grid_vdw_energy:          -33.719093
##########                      Grid_es_energy:           -0.358804
##########           Internal_energy_repulsive:           28.608934

@<TRIPOS>MOLECULE
ZINC000942890482
 52 54 1 0 0
SMALL
USER_CHARGES


@<TRIPOS>ATOM
      1 C1        -14.5916   -4.0138   54.0968 C.3     1  ZINC000942890482   -0.1700
      2 C2        -13.4084   -4.9552   54.3305 C.3     1  ZINC000942890482    0.1000
      3 N3        -12.6134   -4.4691   55.4609 N.am    1  ZINC000942890482   -0.6000
      4 C4        -12.8716   -4.9135   56.7069 C.2     1  ZINC000942890482    0.5700
      5 O5        -13.7641   -5.7178   56.8925 O.2     1  ZINC000942890482   -0.5100
      6 C6        -12.0701   -4.4234   57.8468 C.ar    1  ZINC000942890482   -0.1400
      7 C7        -10.7884   -4.9300   58.0715 C.ar    1  ZINC000942890482   -0.0600
      8 C8        -10.0444   -4.4687   59.1364 C.ar    1  ZINC000942890482   -0.1600
      9 C9        -10.5667   -3.5037   59.9837 C.ar    1  ZINC000942890482    0.1300
     10 F10        -9.8335   -3.0551   61.0261 F       1  ZINC000942890482   -0.1300
     11 C11       -11.8389   -2.9969   59.7650 C.ar    1  ZINC000942890482   -0.1600
     12 C12       -12.5893   -3.4475   58.7005 C.ar    1  ZINC000942890482   -0.0100
     13 C13       -13.9715   -2.8958   58.4639 C.3     1  ZINC000942890482   -0.1200
     14 C14       -11.5379   -3.4999   55.2371 C.3     1  ZINC000942890482    0.1400
     15 H15       -10.6119   -3.8315   55.7070 H       1  ZINC000942890482    0.1100
     16 C16       -11.9448   -2.0908   55.7435 C.3     1  ZINC000942890482   -0.1500
     17 C17       -11.0948   -1.1490   54.8648 C.3     1  ZINC000942890482    0.1100
     18 N18       -10.7298   -1.8951   53.6516 N.am    1  ZINC000942890482   -0.6200
     19 C19        -9.9704   -1.4280   52.6409 C.2     1  ZINC000942890482    0.5300
     20 O20        -9.7331   -2.1344   51.6840 O.2     1  ZINC000942890482   -0.5400
     21 C21        -9.4158   -0.0279   52.6998 C.3     1  ZINC000942890482   -0.1300
     22 C22        -8.0969    0.0311   51.9267 C.3     1  ZINC000942890482   -0.0700
     23 C23        -7.5370    1.4540   51.9813 C.3     1  ZINC000942890482   -0.1600
     24 C24        -7.1477    2.1113   50.6556 C.3     1  ZINC000942890482   -0.1800
     25 C25        -8.4006    2.5757   51.4011 C.3     1  ZINC000942890482   -0.1800
     26 C26       -11.3306   -3.2399   53.7241 C.3     1  ZINC000942890482    0.0900
     27 H27       -15.2133   -3.9826   54.9915 H       1  ZINC000942890482    0.0600
     28 H28       -14.2213   -3.0125   53.8767 H       1  ZINC000942890482    0.0600
     29 H29       -15.1830   -4.3754   53.2557 H       1  ZINC000942890482    0.0700
     30 H30       -13.7787   -5.9564   54.5506 H       1  ZINC000942890482    0.0900
     31 H31       -12.7866   -4.9863   53.4358 H       1  ZINC000942890482    0.0900
     32 H32       -10.3807   -5.6821   57.4121 H       1  ZINC000942890482    0.1400
     33 H33        -9.0532   -4.8601   59.3113 H       1  ZINC000942890482    0.1400
     34 H34       -12.2410   -2.2451   60.4281 H       1  ZINC000942890482    0.1400
     35 H35       -13.9019   -1.9820   57.8737 H       1  ZINC000942890482    0.0900
     36 H36       -14.5692   -3.6314   57.9257 H       1  ZINC000942890482    0.0700
     37 H37       -14.4432   -2.6747   59.4215 H       1  ZINC000942890482    0.0700
     38 H38       -13.0081   -1.9148   55.5809 H       1  ZINC000942890482    0.1000
     39 H39       -11.6894   -1.9708   56.7964 H       1  ZINC000942890482    0.0900
     40 H40       -11.6762   -0.2670   54.5966 H       1  ZINC000942890482    0.0700
     41 H41       -10.1943   -0.8525   55.4026 H       1  ZINC000942890482    0.0700
     42 H42       -10.1297    0.6646   52.2538 H       1  ZINC000942890482    0.0900
     43 H43        -9.2407    0.2501   53.7391 H       1  ZINC000942890482    0.0900
     44 H44        -7.3816   -0.6582   52.3753 H       1  ZINC000942890482    0.0700
     45 H45        -8.2713   -0.2510   50.8884 H       1  ZINC000942890482    0.0700
     46 H46        -6.9302    1.6871   52.8563 H       1  ZINC000942890482    0.1000
     47 H47        -6.2847    2.7770   50.6583 H       1  ZINC000942890482    0.0900
     48 H48        -7.2906    1.5301   49.7446 H       1  ZINC000942890482    0.0900
     49 H49        -9.3676    2.3001   50.9804 H       1  ZINC000942890482    0.0900
     50 H50        -8.3617    3.5470   51.8941 H       1  ZINC000942890482    0.0900
     51 H51       -10.6536   -3.9812   53.2999 H       1  ZINC000942890482    0.0800
     52 H52       -12.2877   -3.2564   53.2026 H       1  ZINC000942890482    0.0900
@<TRIPOS>BOND
     1     1     2    1
     2     1    27    1
     3     1    28    1
     4     1    29    1
     5     2     3    1
     6     2    30    1
     7     2    31    1
     8     3     4   am
     9     3    14    1
    10     4     5    2
    11     4     6    1
    12     6    12   ar
    13     6     7   ar
    14     7     8   ar
    15     7    32    1
    16     8     9   ar
    17     8    33    1
    18     9    10    1
    19     9    11   ar
    20    11    12   ar
    21    11    34    1
    22    12    13    1
    23    13    35    1
    24    13    36    1
    25    13    37    1
    26    14    15    1
    27    14    26    1
    28    14    16    1
    29    16    17    1
    30    16    38    1
    31    16    39    1
    32    17    18    1
    33    17    40    1
    34    17    41    1
    35    18    19   am
    36    18    26    1
    37    19    20    2
    38    19    21    1
    39    21    22    1
    40    21    42    1
    41    21    43    1
    42    22    23    1
    43    22    44    1
    44    22    45    1
    45    23    25    1
    46    23    24    1
    47    23    46    1
    48    24    25    1
    49    24    47    1
    50    24    48    1
    51    25    49    1
    52    25    50    1
    53    26    51    1
    54    26    52    1
@<TRIPOS>SUBSTRUCTURE
     1 ZINC000942890482        1 TEMP              0 ****  ****    0 ROOT


##########                                Name:    ZINC000906038034
##########                DOCK_Rotatable_Bonds:                   5
##########                         Heavy_Atoms:                  23
##########                    Molecular_Weight:             387.428
##########                DOCK_Rotatable_Bonds:                   5
##########                       Formal_Charge:         -0.00999987
##########                     HBond_Acceptors:                  12
##########                        HBond_Donors:                   0
##########                         Heavy_Atoms:                  23
##########                          Grid_Score:          -34.072258
##########                     Grid_vdw_energy:          -33.993778
##########                      Grid_es_energy:           -0.078480
##########           Internal_energy_repulsive:            5.179482

@<TRIPOS>MOLECULE
ZINC000906038034
 35 36 1 0 0
SMALL
USER_CHARGES


@<TRIPOS>ATOM
      1 C1         -7.5669    0.6375   51.4992 C.3     1  ZINC000906038034    0.1000
      2 N2         -8.5787    0.1282   52.4283 N.pl3   1  ZINC000906038034   -0.3700
      3 C3         -8.7876    0.5648   53.6894 C.2     1  ZINC000906038034    0.0600
      4 C4         -9.8032   -0.1518   54.2167 C.2     1  ZINC000906038034   -0.2500
      5 C5        -10.2385   -1.0692   53.2382 C.2     1  ZINC000906038034    0.1200
      6 C6        -11.3331   -2.0518   53.3917 C.2     1  ZINC000906038034    0.1500
      7 N7        -12.0871   -2.1848   54.4450 N.2     1  ZINC000906038034   -0.4300
      8 C8        -13.0138   -3.1150   54.4023 C.2     1  ZINC000906038034    0.0600
      9 C9        -13.9491   -3.3664   55.5568 C.3     1  ZINC000906038034   -0.5300
     10 S10       -13.5892   -4.9886   56.2844 S.o2    1  ZINC000906038034    2.4200
     11 O11       -14.4397   -5.1803   57.4065 O.2     1  ZINC000906038034   -0.9100
     12 O12       -13.5812   -5.9587   55.2461 O.2     1  ZINC000906038034   -0.9200
     13 C13       -11.8901   -4.7642   56.8786 C.3     1  ZINC000906038034   -0.6100
     14 C14       -11.8689   -3.6928   57.9706 C.3     1  ZINC000906038034   -0.4500
     15 S15       -10.2481   -3.6917   58.7852 S.o     1  ZINC000906038034    1.3300
     16 O16       -10.0453   -4.9373   59.4383 O.2     1  ZINC000906038034   -0.7600
     17 C17       -10.4160   -2.3790   60.0259 C.3     1  ZINC000906038034    0.1200
     18 F18       -11.4585   -2.6968   60.9031 F       1  ZINC000906038034   -0.1900
     19 F19        -9.2215   -2.2610   60.7445 F       1  ZINC000906038034   -0.1700
     20 F20       -10.6975   -1.1667   59.3870 F       1  ZINC000906038034   -0.1600
     21 C21       -13.0758   -3.8243   53.2711 C.2     1  ZINC000906038034   -0.2300
     22 S22       -11.8314   -3.2255   52.1759 S.3     1  ZINC000906038034    0.1600
     23 N23        -9.5007   -0.8916   52.1606 N.2     1  ZINC000906038034   -0.2400
     24 H24        -7.9863    1.4608   50.9209 H       1  ZINC000906038034    0.0800
     25 H25        -6.7027    0.9916   52.0614 H       1  ZINC000906038034    0.0900
     26 H26        -7.2588   -0.1610   50.8241 H       1  ZINC000906038034    0.0900
     27 H27        -8.2383    1.3494   54.1885 H       1  ZINC000906038034    0.1800
     28 H28       -10.2096   -0.0423   55.2113 H       1  ZINC000906038034    0.1600
     29 H29       -13.8121   -2.5914   56.3109 H       1  ZINC000906038034    0.1500
     30 H30       -14.9791   -3.3485   55.2004 H       1  ZINC000906038034    0.1600
     31 H31       -11.5202   -5.7053   57.2857 H       1  ZINC000906038034    0.1500
     32 H32       -11.2539   -4.4517   56.0505 H       1  ZINC000906038034    0.1500
     33 H33       -12.0519   -2.7155   57.5242 H       1  ZINC000906038034    0.1600
     34 H34       -12.6448   -3.9076   58.7054 H       1  ZINC000906038034    0.1300
     35 H35       -13.7713   -4.6238   53.0625 H       1  ZINC000906038034    0.1900
@<TRIPOS>BOND
     1     1     2    1
     2     1    24    1
     3     1    25    1
     4     1    26    1
     5     2    23    1
     6     2     3    1
     7     3     4    2
     8     3    27    1
     9     4     5    1
    10     4    28    1
    11     5     6    1
    12     5    23    2
    13     6    22    1
    14     6     7    2
    15     7     8    1
    16     8     9    1
    17     8    21    2
    18     9    10    1
    19     9    29    1
    20     9    30    1
    21    10    11    2
    22    10    12    2
    23    10    13    1
    24    13    14    1
    25    13    31    1
    26    13    32    1
    27    14    15    1
    28    14    33    1
    29    14    34    1
    30    15    16    2
    31    15    17    1
    32    17    18    1
    33    17    19    1
    34    17    20    1
    35    21    22    1
    36    21    35    1
@<TRIPOS>SUBSTRUCTURE
     1 ZINC000906038034        1 TEMP              0 ****  ****    0 ROOT


##########                                Name:    ZINC000573150059
##########                DOCK_Rotatable_Bonds:                   7
##########                         Heavy_Atoms:                  23
##########                    Molecular_Weight:             378.269
##########                DOCK_Rotatable_Bonds:                   7
##########                       Formal_Charge:        -2.98023e-07
##########                     HBond_Acceptors:                   5
##########                        HBond_Donors:                   2
##########                         Heavy_Atoms:                  23
##########                          Grid_Score:          -34.047523
##########                     Grid_vdw_energy:          -34.162464
##########                      Grid_es_energy:            0.114943
##########           Internal_energy_repulsive:            8.354248

@<TRIPOS>MOLECULE
ZINC000573150059
 43 44 1 0 0
SMALL
USER_CHARGES


@<TRIPOS>ATOM
      1 C1         -7.5725    1.4507   51.2217 C.3     1  ZINC000573150059    0.0300
      2 O2         -8.7999    0.7889   51.5339 O.3     1  ZINC000573150059   -0.3600
      3 C3         -8.8320    0.2091   52.8396 C.3     1  ZINC000573150059    0.0700
      4 H4         -8.0116   -0.5011   52.9420 H       1  ZINC000573150059    0.0900
      5 C5         -8.6867    1.3113   53.8908 C.3     1  ZINC000573150059   -0.1700
      6 C6        -10.1433   -0.5061   53.0396 C.2     1  ZINC000573150059    0.5100
      7 O7        -11.0376    0.0292   53.6599 O.2     1  ZINC000573150059   -0.4900
      8 N8        -10.3223   -1.7405   52.5292 N.am    1  ZINC000573150059   -0.6700
      9 C9        -11.5399   -2.4046   52.7149 C.ar    1  ZINC000573150059    0.1900
     10 C10       -12.6316   -2.0914   51.9151 C.ar    1  ZINC000573150059   -0.2000
     11 C11       -13.8345   -2.7466   52.0976 C.ar    1  ZINC000573150059   -0.0500
     12 C12       -13.9555   -3.7151   53.0750 C.ar    1  ZINC000573150059   -0.2200
     13 C13       -12.8669   -4.0334   53.8783 C.ar    1  ZINC000573150059    0.2400
     14 N14       -12.9898   -5.0131   54.8662 N.pl3   1  ZINC000573150059   -0.7300
     15 C15       -13.7387   -4.7270   56.0924 C.3     1  ZINC000573150059    0.2000
     16 H16       -14.4561   -3.9288   55.9021 H       1  ZINC000573150059    0.1000
     17 C17       -14.4837   -5.9861   56.5404 C.3     1  ZINC000573150059   -0.1700
     18 C18       -12.7835   -4.2964   57.1756 C.ar    1  ZINC000573150059    0.1400
     19 C19       -13.0877   -3.1979   57.9569 C.ar    1  ZINC000573150059   -0.1600
     20 C20       -12.2027   -2.8098   58.9512 C.ar    1  ZINC000573150059   -0.0400
     21 C21       -11.0391   -3.5451   59.1228 C.ar    1  ZINC000573150059   -0.1500
     22 Br22       -9.7926   -3.0667   60.4620 Br      1  ZINC000573150059   -0.0300
     23 C23       -10.8025   -4.6330   58.3021 C.ar    1  ZINC000573150059    0.1400
     24 N24       -11.6698   -4.9755   57.3700 N.ar    1  ZINC000573150059   -0.4700
     25 C25       -11.6564   -3.3805   53.6943 C.ar    1  ZINC000573150059   -0.1900
     26 H26        -7.4024    2.2564   51.9358 H       1  ZINC000573150059    0.0500
     27 H27        -6.7507    0.7368   51.2770 H       1  ZINC000573150059    0.0400
     28 H28        -7.6282    1.8635   50.2145 H       1  ZINC000573150059    0.0900
     29 H29        -9.5072    2.0215   53.7883 H       1  ZINC000573150059    0.0700
     30 H30        -8.7112    0.8690   54.8867 H       1  ZINC000573150059    0.0700
     31 H31        -7.7383    1.8285   53.7462 H       1  ZINC000573150059    0.0700
     32 H32        -9.6071   -2.1686   52.0330 H       1  ZINC000573150059    0.4100
     33 H33       -12.5402   -1.3347   51.1499 H       1  ZINC000573150059    0.1200
     34 H34       -14.6819   -2.5007   51.4747 H       1  ZINC000573150059    0.1300
     35 H35       -14.8970   -4.2251   53.2154 H       1  ZINC000573150059    0.1200
     36 H36       -12.5792   -5.8829   54.7405 H       1  ZINC000573150059    0.4100
     37 H37       -13.7663   -6.7844   56.7308 H       1  ZINC000573150059    0.0600
     38 H38       -15.0409   -5.7733   57.4527 H       1  ZINC000573150059    0.0700
     39 H39       -15.1746   -6.2976   55.7570 H       1  ZINC000573150059    0.0700
     40 H40       -14.0032   -2.6484   57.7949 H       1  ZINC000573150059    0.1500
     41 H41       -12.4141   -1.9552   59.5768 H       1  ZINC000573150059    0.1500
     42 H42        -9.8989   -5.2108   58.4287 H       1  ZINC000573150059    0.1700
     43 H43       -10.8088   -3.6263   54.3169 H       1  ZINC000573150059    0.1400
@<TRIPOS>BOND
     1     1     2    1
     2     1    26    1
     3     1    27    1
     4     1    28    1
     5     2     3    1
     6     3     4    1
     7     3     5    1
     8     3     6    1
     9     5    29    1
    10     5    30    1
    11     5    31    1
    12     6     7    2
    13     6     8   am
    14     8     9    1
    15     8    32    1
    16     9    25   ar
    17     9    10   ar
    18    10    11   ar
    19    10    33    1
    20    11    12   ar
    21    11    34    1
    22    12    13   ar
    23    12    35    1
    24    13    14    1
    25    13    25   ar
    26    14    15    1
    27    14    36    1
    28    15    16    1
    29    15    17    1
    30    15    18    1
    31    17    37    1
    32    17    38    1
    33    17    39    1
    34    18    24   ar
    35    18    19   ar
    36    19    20   ar
    37    19    40    1
    38    20    21   ar
    39    20    41    1
    40    21    22    1
    41    21    23   ar
    42    23    24   ar
    43    23    42    1
    44    25    43    1
@<TRIPOS>SUBSTRUCTURE
     1 ZINC000573150059        1 TEMP              0 ****  ****    0 ROOT


##########                                Name:    ZINC001456607258
##########                DOCK_Rotatable_Bonds:                   9
##########                         Heavy_Atoms:                  25
##########                    Molecular_Weight:             339.437
##########                DOCK_Rotatable_Bonds:                   9
##########                       Formal_Charge:          -0.0200009
##########                     HBond_Acceptors:                   5
##########                        HBond_Donors:                   2
##########                         Heavy_Atoms:                  25
##########                          Grid_Score:          -34.036449
##########                     Grid_vdw_energy:          -34.036903
##########                      Grid_es_energy:            0.000453
##########           Internal_energy_repulsive:           14.814682

@<TRIPOS>MOLECULE
ZINC001456607258
 50 52 1 0 0
SMALL
USER_CHARGES


@<TRIPOS>ATOM
      1 C1        -14.7953   -4.1663   57.6562 C.3     1  ZINC001456607258   -0.1600
      2 C2        -13.8065   -3.0017   57.5733 C.3     1  ZINC001456607258   -0.1100
      3 C3        -12.5752   -3.4341   56.7746 C.3     1  ZINC001456607258   -0.1000
      4 H4        -12.2036   -4.3817   57.1645 H       1  ZINC001456607258    0.0900
      5 C5        -11.4850   -2.3680   56.9012 C.3     1  ZINC001456607258   -0.0700
      6 C6        -10.8195   -2.4876   58.2480 C.ar    1  ZINC001456607258   -0.0800
      7 C7        -10.8907   -1.4421   59.1495 C.ar    1  ZINC001456607258   -0.1200
      8 C8        -10.2803   -1.5519   60.3849 C.ar    1  ZINC001456607258   -0.1200
      9 C9         -9.5988   -2.7073   60.7189 C.ar    1  ZINC001456607258   -0.1200
     10 C10        -9.5283   -3.7531   59.8178 C.ar    1  ZINC001456607258   -0.1200
     11 C11       -10.1425   -3.6451   58.5841 C.ar    1  ZINC001456607258   -0.1200
     12 C12       -12.9498   -3.5997   55.3244 C.2     1  ZINC001456607258    0.5200
     13 O13       -13.2823   -4.6877   54.9044 O.2     1  ZINC001456607258   -0.5300
     14 N14       -12.9154   -2.5386   54.4940 N.am    1  ZINC001456607258   -0.7300
     15 C15       -13.2796   -2.6996   53.0842 C.3     1  ZINC001456607258    0.1300
     16 C16       -12.1336   -2.2016   52.2014 C.3     1  ZINC001456607258   -0.1400
     17 C17       -11.4736   -0.9085   52.7133 C.3     1  ZINC001456607258    0.1100
     18 N18       -10.1891   -1.5425   52.3584 N.am    1  ZINC001456607258   -0.6500
     19 C19        -8.9636   -1.0803   52.0405 C.2     1  ZINC001456607258    0.6100
     20 O20        -8.0667   -1.8609   51.7845 O.2     1  ZINC001456607258   -0.5400
     21 C21        -8.7106    0.3700   52.0030 C.2     1  ZINC001456607258   -0.2300
     22 C22        -9.2407    1.3186   52.8336 C.2     1  ZINC001456607258    0.0400
     23 N23        -8.7584    2.5213   52.4675 N.pl3   1  ZINC001456607258   -0.5500
     24 C24        -7.9138    2.3889   51.4040 C.2     1  ZINC001456607258   -0.0200
     25 C25        -7.8344    1.0883   51.0714 C.2     1  ZINC001456607258   -0.1400
     26 C26       -10.7854   -2.8858   52.4913 C.3     1  ZINC001456607258    0.1100
     27 H27       -15.6296   -3.8893   58.3008 H       1  ZINC001456607258    0.0600
     28 H28       -15.1684   -4.3979   56.6585 H       1  ZINC001456607258    0.0600
     29 H29       -14.2927   -5.0411   58.0684 H       1  ZINC001456607258    0.0600
     30 H30       -14.2824   -2.1556   57.0775 H       1  ZINC001456607258    0.0800
     31 H31       -13.5034   -2.7101   58.5789 H       1  ZINC001456607258    0.0700
     32 H32       -10.7434   -2.5117   56.1154 H       1  ZINC001456607258    0.0800
     33 H33       -11.9313   -1.3784   56.8031 H       1  ZINC001456607258    0.0900
     34 H34       -11.4231   -0.5394   58.8885 H       1  ZINC001456607258    0.1200
     35 H35       -10.3354   -0.7347   61.0889 H       1  ZINC001456607258    0.1200
     36 H36        -9.1213   -2.7927   61.6837 H       1  ZINC001456607258    0.1200
     37 H37        -8.9957   -4.6557   60.0786 H       1  ZINC001456607258    0.1200
     38 H38       -10.0874   -4.4622   57.8800 H       1  ZINC001456607258    0.1200
     39 H39       -12.6495   -1.6683   54.8300 H       1  ZINC001456607258    0.4000
     40 H40       -13.4678   -3.7528   52.8755 H       1  ZINC001456607258    0.0700
     41 H41       -14.1789   -2.1210   52.8729 H       1  ZINC001456607258    0.0800
     42 H42       -12.3933   -2.1746   51.1431 H       1  ZINC001456607258    0.1100
     43 H43       -11.7092   -0.0283   52.1150 H       1  ZINC001456607258    0.0800
     44 H44       -11.6015   -0.7437   53.7832 H       1  ZINC001456607258    0.0900
     45 H45        -9.9293    1.1343   53.6449 H       1  ZINC001456607258    0.1700
     46 H46        -8.9801    3.3619   52.8980 H       1  ZINC001456607258    0.4200
     47 H47        -7.3905    3.1961   50.9130 H       1  ZINC001456607258    0.1700
     48 H48        -7.2481    0.6590   50.2724 H       1  ZINC001456607258    0.1500
     49 H49       -10.7111   -3.3021   53.4961 H       1  ZINC001456607258    0.0900
     50 H50       -10.4715   -3.5846   51.7158 H       1  ZINC001456607258    0.0900
@<TRIPOS>BOND
     1     1     2    1
     2     1    27    1
     3     1    28    1
     4     1    29    1
     5     2     3    1
     6     2    30    1
     7     2    31    1
     8     3     4    1
     9     3     5    1
    10     3    12    1
    11     5     6    1
    12     5    32    1
    13     5    33    1
    14     6    11   ar
    15     6     7   ar
    16     7     8   ar
    17     7    34    1
    18     8     9   ar
    19     8    35    1
    20     9    10   ar
    21     9    36    1
    22    10    11   ar
    23    10    37    1
    24    11    38    1
    25    12    13    2
    26    12    14   am
    27    14    15    1
    28    14    39    1
    29    15    16    1
    30    15    40    1
    31    15    41    1
    32    16    26    1
    33    16    17    1
    34    16    42    1
    35    17    18    1
    36    17    43    1
    37    17    44    1
    38    18    19   am
    39    18    26    1
    40    19    20    2
    41    19    21    1
    42    21    25    1
    43    21    22    2
    44    22    23    1
    45    22    45    1
    46    23    24    1
    47    23    46    1
    48    24    25    2
    49    24    47    1
    50    25    48    1
    51    26    49    1
    52    26    50    1
@<TRIPOS>SUBSTRUCTURE
     1 ZINC001456607258        1 TEMP              0 ****  ****    0 ROOT


##########                                Name:    ZINC000464752079
##########                DOCK_Rotatable_Bonds:                   7
##########                         Heavy_Atoms:                  29
##########                    Molecular_Weight:             404.413
##########                DOCK_Rotatable_Bonds:                   7
##########                       Formal_Charge:         7.45058e-08
##########                     HBond_Acceptors:                   8
##########                        HBond_Donors:                   1
##########                         Heavy_Atoms:                  29
##########                          Grid_Score:          -34.029099
##########                     Grid_vdw_energy:          -31.765974
##########                      Grid_es_energy:           -2.263123
##########           Internal_energy_repulsive:           14.834697

@<TRIPOS>MOLECULE
ZINC000464752079
 51 54 1 0 0
SMALL
USER_CHARGES


@<TRIPOS>ATOM
      1 C1         -8.7579    1.3534   52.3632 C.3     1  ZINC000464752079   -0.1200
      2 C2         -9.7210    2.2629   53.0820 C.ar    1  ZINC000464752079   -0.0800
      3 C3        -10.8470    2.7301   52.4310 C.ar    1  ZINC000464752079   -0.1200
      4 C4        -11.7305    3.5645   53.0905 C.ar    1  ZINC000464752079   -0.1200
      5 C5        -11.4878    3.9310   54.4008 C.ar    1  ZINC000464752079   -0.1300
      6 C6        -10.3619    3.4629   55.0523 C.ar    1  ZINC000464752079   -0.0900
      7 C7         -9.4809    2.6253   54.3945 C.ar    1  ZINC000464752079   -0.0800
      8 C8         -8.2535    2.1150   55.1047 C.3     1  ZINC000464752079    0.2000
      9 H9         -7.9508    1.1579   54.6799 H       1  ZINC000464752079    0.0900
     10 C10        -7.1051    3.1367   54.9678 C.3     1  ZINC000464752079   -0.1200
     11 C11        -6.4206    3.0785   56.3590 C.3     1  ZINC000464752079   -0.1300
     12 C12        -7.6353    2.8557   57.2942 C.3     1  ZINC000464752079    0.1000
     13 N13        -8.5346    1.9589   56.5393 N.am    1  ZINC000464752079   -0.6300
     14 C14        -9.4590    1.1388   57.0774 C.2     1  ZINC000464752079    0.7200
     15 O15       -10.1460    0.4412   56.3565 O.2     1  ZINC000464752079   -0.5700
     16 N16        -9.6219    1.0922   58.4144 N.am    1  ZINC000464752079   -0.7400
     17 C17       -10.6254    0.1995   58.9994 C.3     1  ZINC000464752079    0.1900
     18 C18       -10.1948   -0.1994   60.3874 C.ar    1  ZINC000464752079   -0.1200
     19 C19       -10.3922    0.6662   61.4467 C.ar    1  ZINC000464752079   -0.0500
     20 C20        -9.9971    0.3028   62.7237 C.ar    1  ZINC000464752079    0.0100
     21 C21        -9.4005   -0.9368   62.9399 C.ar    1  ZINC000464752079    0.0800
     22 C22        -9.2048   -1.8032   61.8768 C.ar    1  ZINC000464752079   -0.1800
     23 C23        -9.6060   -1.4369   60.6012 C.ar    1  ZINC000464752079    0.1400
     24 O24        -9.4141   -2.2875   59.5578 O.3     1  ZINC000464752079   -0.3100
     25 C25       -10.1131   -3.5331   59.5994 C.3     1  ZINC000464752079    0.4100
     26 F26       -11.1529   -3.5159   58.6635 F       1  ZINC000464752079   -0.2000
     27 F27        -9.2294   -4.5742   59.2956 F       1  ZINC000464752079   -0.2000
     28 O28        -9.1068   -1.0542   64.2677 O.3     1  ZINC000464752079   -0.3000
     29 C29        -9.1555    0.2857   64.7926 C.3     1  ZINC000464752079    0.2100
     30 O30       -10.0770    0.9624   63.9173 O.3     1  ZINC000464752079   -0.3000
     31 H31        -9.0572    0.3161   52.5131 H       1  ZINC000464752079    0.0700
     32 H32        -8.7668    1.5839   51.2979 H       1  ZINC000464752079    0.0700
     33 H33        -7.7532    1.5025   52.7589 H       1  ZINC000464752079    0.0700
     34 H34       -11.0366    2.4437   51.4071 H       1  ZINC000464752079    0.1200
     35 H35       -12.6101    3.9302   52.5815 H       1  ZINC000464752079    0.1200
     36 H36       -12.1776    4.5833   54.9158 H       1  ZINC000464752079    0.1200
     37 H37       -10.1720    3.7495   56.0761 H       1  ZINC000464752079    0.1100
     38 H38        -6.4111    2.8342   54.1836 H       1  ZINC000464752079    0.0900
     39 H39        -7.4979    4.1346   54.7728 H       1  ZINC000464752079    0.0800
     40 H40        -5.7242    2.2420   56.4171 H       1  ZINC000464752079    0.0800
     41 H41        -5.9191    4.0190   56.5874 H       1  ZINC000464752079    0.0900
     42 H42        -7.3176    2.3792   58.2216 H       1  ZINC000464752079    0.0700
     43 H43        -8.1313    3.8033   57.5041 H       1  ZINC000464752079    0.0700
     44 H44        -9.0745    1.6497   58.9894 H       1  ZINC000464752079    0.4000
     45 H45       -11.5845    0.7150   59.0506 H       1  ZINC000464752079    0.0800
     46 H46       -10.7245   -0.6916   58.3795 H       1  ZINC000464752079    0.0800
     47 H47       -10.8548    1.6275   61.2786 H       1  ZINC000464752079    0.1500
     48 H48        -8.7424   -2.7652   62.0422 H       1  ZINC000464752079    0.1500
     49 H49       -10.5249   -3.6856   60.5971 H       1  ZINC000464752079    0.1900
     50 H50        -9.5311    0.2828   65.8158 H       1  ZINC000464752079    0.1400
     51 H51        -8.1710    0.7512   64.7462 H       1  ZINC000464752079    0.0900
@<TRIPOS>BOND
     1     1     2    1
     2     1    31    1
     3     1    32    1
     4     1    33    1
     5     2     7   ar
     6     2     3   ar
     7     3     4   ar
     8     3    34    1
     9     4     5   ar
    10     4    35    1
    11     5     6   ar
    12     5    36    1
    13     6     7   ar
    14     6    37    1
    15     7     8    1
    16     8     9    1
    17     8    13    1
    18     8    10    1
    19    10    11    1
    20    10    38    1
    21    10    39    1
    22    11    12    1
    23    11    40    1
    24    11    41    1
    25    12    13    1
    26    12    42    1
    27    12    43    1
    28    13    14   am
    29    14    15    2
    30    14    16   am
    31    16    17    1
    32    16    44    1
    33    17    18    1
    34    17    45    1
    35    17    46    1
    36    18    23   ar
    37    18    19   ar
    38    19    20   ar
    39    19    47    1
    40    20    30    1
    41    20    21   ar
    42    21    22   ar
    43    21    28    1
    44    22    23   ar
    45    22    48    1
    46    23    24    1
    47    24    25    1
    48    25    26    1
    49    25    27    1
    50    25    49    1
    51    28    29    1
    52    29    30    1
    53    29    50    1
    54    29    51    1
@<TRIPOS>SUBSTRUCTURE
     1 ZINC000464752079        1 TEMP              0 ****  ****    0 ROOT


##########                                Name:    ZINC000032503012
##########                DOCK_Rotatable_Bonds:                   8
##########                         Heavy_Atoms:                  27
##########                    Molecular_Weight:             390.503
##########                DOCK_Rotatable_Bonds:                   8
##########                       Formal_Charge:           0.0099995
##########                     HBond_Acceptors:                   7
##########                        HBond_Donors:                   2
##########                         Heavy_Atoms:                  27
##########                          Grid_Score:          -33.995060
##########                     Grid_vdw_energy:          -32.615982
##########                      Grid_es_energy:           -1.379076
##########           Internal_energy_repulsive:           45.574810

@<TRIPOS>MOLECULE
ZINC000032503012
 53 54 1 0 0
SMALL
USER_CHARGES


@<TRIPOS>ATOM
      1 C1        -14.4035   -0.5060   53.4236 C.3     1  ZINC000032503012   -0.1200
      2 C2        -13.6165   -1.7603   53.1435 C.ar    1  ZINC000032503012   -0.0500
      3 C3        -12.7688   -1.8145   52.0528 C.ar    1  ZINC000032503012   -0.1600
      4 C4        -12.0453   -2.9641   51.7930 C.ar    1  ZINC000032503012   -0.0700
      5 C5        -12.1682   -4.0613   52.6231 C.ar    1  ZINC000032503012   -0.1500
      6 C6        -13.0185   -4.0093   53.7183 C.ar    1  ZINC000032503012    0.1300
      7 O7        -13.1409   -5.0874   54.5367 O.3     1  ZINC000032503012   -0.2800
      8 C8        -13.6676   -4.8528   55.8441 C.3     1  ZINC000032503012    0.0700
      9 H9        -14.5685   -4.2438   55.7691 H       1  ZINC000032503012    0.1100
     10 C10       -14.0097   -6.1902   56.5038 C.3     1  ZINC000032503012   -0.1800
     11 C11       -12.6406   -4.1300   56.6772 C.2     1  ZINC000032503012    0.5200
     12 O12       -12.0459   -3.1790   56.2159 O.2     1  ZINC000032503012   -0.4900
     13 N13       -12.3830   -4.5404   57.9348 N.am    1  ZINC000032503012   -0.6700
     14 C14       -11.4295   -3.8693   58.7083 C.ar    1  ZINC000032503012    0.1300
     15 C15       -10.1579   -4.4050   58.8639 C.ar    1  ZINC000032503012   -0.0600
     16 C16        -9.2188   -3.7402   59.6282 C.ar    1  ZINC000032503012   -0.1200
     17 C17        -9.5440   -2.5429   60.2384 C.ar    1  ZINC000032503012   -0.0300
     18 C18       -10.8098   -2.0069   60.0857 C.ar    1  ZINC000032503012   -0.6600
     19 S19       -11.2192   -0.4808   60.8655 S.o2    1  ZINC000032503012    2.7000
     20 O20       -12.5904   -0.2398   60.5806 O.2     1  ZINC000032503012   -0.9600
     21 O21       -10.7011   -0.5535   62.1866 O.2     1  ZINC000032503012   -0.9500
     22 N22       -10.3650    0.7091   60.0929 N.am    1  ZINC000032503012   -1.1100
     23 C23       -10.5619    0.9393   58.6596 C.3     1  ZINC000032503012    0.1700
     24 C24       -12.0523    0.8437   58.3277 C.3     1  ZINC000032503012   -0.1900
     25 C25       -10.0454    2.3315   58.2910 C.3     1  ZINC000032503012   -0.1500
     26 C26        -9.7933   -0.1172   57.8631 C.3     1  ZINC000032503012   -0.1800
     27 C27       -11.7511   -2.6633   59.3176 C.ar    1  ZINC000032503012   -0.0400
     28 C28       -13.7388   -2.8531   53.9800 C.ar    1  ZINC000032503012   -0.2100
     29 H29       -13.8210    0.1520   54.0685 H       1  ZINC000032503012    0.0700
     30 H30       -14.6205    0.0041   52.4850 H       1  ZINC000032503012    0.0700
     31 H31       -15.3382   -0.7668   53.9199 H       1  ZINC000032503012    0.0700
     32 H32       -12.6716   -0.9579   51.4024 H       1  ZINC000032503012    0.1300
     33 H33       -11.3839   -3.0042   50.9402 H       1  ZINC000032503012    0.1300
     34 H34       -11.6033   -4.9589   52.4196 H       1  ZINC000032503012    0.1300
     35 H35       -14.7525   -6.7130   55.9013 H       1  ZINC000032503012    0.0800
     36 H36       -13.1088   -6.7992   56.5788 H       1  ZINC000032503012    0.0800
     37 H37       -14.4115   -6.0112   57.5011 H       1  ZINC000032503012    0.0800
     38 H38       -12.8587   -5.3011   58.3038 H       1  ZINC000032503012    0.4100
     39 H39        -9.9035   -5.3406   58.3881 H       1  ZINC000032503012    0.1400
     40 H40        -8.2296   -4.1562   59.7495 H       1  ZINC000032503012    0.1400
     41 H41        -8.8080   -2.0252   60.8357 H       1  ZINC000032503012    0.1500
     42 H42        -9.7343    1.2537   60.5895 H       1  ZINC000032503012    0.4200
     43 H43       -12.6192    1.4674   59.0190 H       1  ZINC000032503012    0.0700
     44 H44       -12.2201    1.1876   57.3070 H       1  ZINC000032503012    0.0800
     45 H45       -12.3797   -0.1918   58.4207 H       1  ZINC000032503012    0.0700
     46 H46        -8.9836    2.3996   58.5274 H       1  ZINC000032503012    0.0700
     47 H47       -10.1919    2.5027   57.2245 H       1  ZINC000032503012    0.0700
     48 H48       -10.5930    3.0840   58.8584 H       1  ZINC000032503012    0.0600
     49 H49       -10.2858   -1.0835   57.9717 H       1  ZINC000032503012    0.0900
     50 H50        -9.7738    0.1645   56.8103 H       1  ZINC000032503012    0.0700
     51 H51        -8.7728   -0.1851   58.2400 H       1  ZINC000032503012    0.0600
     52 H52       -12.7394   -2.2443   59.1988 H       1  ZINC000032503012    0.1400
     53 H53       -14.4013   -2.8102   54.8319 H       1  ZINC000032503012    0.1300
@<TRIPOS>BOND
     1     1     2    1
     2     1    29    1
     3     1    30    1
     4     1    31    1
     5     2    28   ar
     6     2     3   ar
     7     3     4   ar
     8     3    32    1
     9     4     5   ar
    10     4    33    1
    11     5     6   ar
    12     5    34    1
    13     6     7    1
    14     6    28   ar
    15     7     8    1
    16     8     9    1
    17     8    10    1
    18     8    11    1
    19    10    35    1
    20    10    36    1
    21    10    37    1
    22    11    12    2
    23    11    13   am
    24    13    14    1
    25    13    38    1
    26    14    27   ar
    27    14    15   ar
    28    15    16   ar
    29    15    39    1
    30    16    17   ar
    31    16    40    1
    32    17    18   ar
    33    17    41    1
    34    18    19    1
    35    18    27   ar
    36    19    20    2
    37    19    21    2
    38    19    22   am
    39    22    23    1
    40    22    42    1
    41    23    24    1
    42    23    25    1
    43    23    26    1
    44    24    43    1
    45    24    44    1
    46    24    45    1
    47    25    46    1
    48    25    47    1
    49    25    48    1
    50    26    49    1
    51    26    50    1
    52    26    51    1
    53    27    52    1
    54    28    53    1
@<TRIPOS>SUBSTRUCTURE
     1 ZINC000032503012        1 TEMP              0 ****  ****    0 ROOT


##########                                Name:    ZINC000129637895
##########                DOCK_Rotatable_Bonds:                   7
##########                         Heavy_Atoms:                  26
##########                    Molecular_Weight:             374.464
##########                DOCK_Rotatable_Bonds:                   7
##########                       Formal_Charge:        -5.51343e-07
##########                     HBond_Acceptors:                   8
##########                        HBond_Donors:                   1
##########                         Heavy_Atoms:                  26
##########                          Grid_Score:          -33.984745
##########                     Grid_vdw_energy:          -34.578751
##########                      Grid_es_energy:            0.594005
##########           Internal_energy_repulsive:           20.023815

@<TRIPOS>MOLECULE
ZINC000129637895
 48 50 1 0 0
SMALL
USER_CHARGES


@<TRIPOS>ATOM
      1 C1         -5.8638    3.5050   54.2284 C.3     1  ZINC000129637895   -0.1500
      2 C2         -6.3189    3.8704   52.8142 C.3     1  ZINC000129637895   -0.0500
      3 C3         -6.1664    2.6729   51.9122 C.2     1  ZINC000129637895    0.0300
      4 C4         -7.1129    1.7248   51.7917 C.2     1  ZINC000129637895   -0.0200
      5 N5         -8.3387    1.6993   52.4555 N.am    1  ZINC000129637895   -0.5900
      6 C6         -8.9047    0.5201   52.7806 C.2     1  ZINC000129637895    0.5000
      7 O7         -8.3463   -0.5200   52.4966 O.2     1  ZINC000129637895   -0.4800
      8 C8        -10.2178    0.4928   53.4896 C.2     1  ZINC000129637895    0.5200
      9 O9        -11.2090    0.0910   52.9159 O.2     1  ZINC000129637895   -0.5100
     10 N10       -10.3028    0.9145   54.7669 N.am    1  ZINC000129637895   -0.5800
     11 C11       -11.5856    0.8902   55.4860 C.3     1  ZINC000129637895    0.0800
     12 C12       -11.3798    0.1735   56.8246 C.3     1  ZINC000129637895    0.0400
     13 N13       -10.2722    0.8086   57.5513 N.3     1  ZINC000129637895   -0.4900
     14 C14       -10.1593    0.2908   58.8436 C.ar    1  ZINC000129637895    0.1500
     15 C15       -10.4980    1.0751   59.9392 C.ar    1  ZINC000129637895   -0.2100
     16 C16       -10.3866    0.5625   61.2174 C.ar    1  ZINC000129637895   -0.0500
     17 C17        -9.9381   -0.7302   61.4095 C.ar    1  ZINC000129637895   -0.2300
     18 C18        -9.5982   -1.5184   60.3186 C.ar    1  ZINC000129637895    0.1500
     19 O19        -9.1576   -2.7898   60.5094 O.3     1  ZINC000129637895   -0.3200
     20 C20        -9.6119   -3.7795   59.5843 C.3     1  ZINC000129637895    0.0300
     21 C21        -9.7138   -1.0101   59.0347 C.ar    1  ZINC000129637895   -0.1700
     22 C22        -9.0068    0.6737   56.8177 C.3     1  ZINC000129637895    0.0400
     23 C23        -9.1141    1.4052   55.4806 C.3     1  ZINC000129637895    0.1100
     24 S24        -6.5287    0.5213   50.6449 S.3     1  ZINC000129637895    0.2400
     25 C25        -5.0793    1.4044   50.4413 C.2     1  ZINC000129637895   -0.0300
     26 N26        -5.0966    2.4682   51.1703 N.2     1  ZINC000129637895   -0.4500
     27 H27        -6.4749    2.6853   54.6064 H       1  ZINC000129637895    0.0600
     28 H28        -4.8181    3.1982   54.2058 H       1  ZINC000129637895    0.0500
     29 H29        -5.9741    4.3713   54.8808 H       1  ZINC000129637895    0.0700
     30 H30        -7.3646    4.1774   52.8369 H       1  ZINC000129637895    0.0900
     31 H31        -5.7078    4.6901   52.4362 H       1  ZINC000129637895    0.0700
     32 H32        -8.7842    2.5302   52.6834 H       1  ZINC000129637895    0.4300
     33 H33       -11.9241    1.9107   55.6653 H       1  ZINC000129637895    0.0900
     34 H34       -12.3273    0.3541   54.8938 H       1  ZINC000129637895    0.1400
     35 H35       -12.2914    0.2428   57.4182 H       1  ZINC000129637895    0.1000
     36 H36       -11.1422   -0.8747   56.6433 H       1  ZINC000129637895    0.0500
     37 H37       -10.8481    2.0860   59.7918 H       1  ZINC000129637895    0.1300
     38 H38       -10.6504    1.1735   62.0679 H       1  ZINC000129637895    0.1300
     39 H39        -9.8514   -1.1278   62.4100 H       1  ZINC000129637895    0.1300
     40 H40       -10.6997   -3.8381   59.6198 H       1  ZINC000129637895    0.0600
     41 H41        -9.2954   -3.5080   58.5772 H       1  ZINC000129637895    0.0600
     42 H42        -9.1870   -4.7475   59.8501 H       1  ZINC000129637895    0.1000
     43 H43        -9.4501   -1.6221   58.1848 H       1  ZINC000129637895    0.1300
     44 H44        -8.1973    1.1056   57.4062 H       1  ZINC000129637895    0.1000
     45 H45        -8.8021   -0.3815   56.6363 H       1  ZINC000129637895    0.0500
     46 H46        -8.2218    1.2123   54.8851 H       1  ZINC000129637895    0.1100
     47 H47        -9.2160    2.4761   55.6563 H       1  ZINC000129637895    0.0900
     48 H48        -4.2666    1.1150   49.7915 H       1  ZINC000129637895    0.2000
@<TRIPOS>BOND
     1     1     2    1
     2     1    27    1
     3     1    28    1
     4     1    29    1
     5     2     3    1
     6     2    30    1
     7     2    31    1
     8     3    26    1
     9     3     4    2
    10     4     5    1
    11     4    24    1
    12     5     6   am
    13     5    32    1
    14     6     7    2
    15     6     8    1
    16     8     9    2
    17     8    10   am
    18    10    23    1
    19    10    11    1
    20    11    12    1
    21    11    33    1
    22    11    34    1
    23    12    13    1
    24    12    35    1
    25    12    36    1
    26    13    14    1
    27    13    22    1
    28    14    21   ar
    29    14    15   ar
    30    15    16   ar
    31    15    37    1
    32    16    17   ar
    33    16    38    1
    34    17    18   ar
    35    17    39    1
    36    18    19    1
    37    18    21   ar
    38    19    20    1
    39    20    40    1
    40    20    41    1
    41    20    42    1
    42    21    43    1
    43    22    23    1
    44    22    44    1
    45    22    45    1
    46    23    46    1
    47    23    47    1
    48    24    25    1
    49    25    26    2
    50    25    48    1
@<TRIPOS>SUBSTRUCTURE
     1 ZINC000129637895        1 TEMP              0 ****  ****    0 ROOT


##########                                Name:    ZINC000963156778
##########                DOCK_Rotatable_Bonds:                   6
##########                         Heavy_Atoms:                  24
##########                    Molecular_Weight:             349.414
##########                DOCK_Rotatable_Bonds:                   6
##########                       Formal_Charge:         -0.00999984
##########                     HBond_Acceptors:                   9
##########                        HBond_Donors:                   2
##########                         Heavy_Atoms:                  24
##########                          Grid_Score:          -33.955692
##########                     Grid_vdw_energy:          -32.756420
##########                      Grid_es_energy:           -1.199272
##########           Internal_energy_repulsive:            7.487330

@<TRIPOS>MOLECULE
ZINC000963156778
 43 46 1 0 0
SMALL
USER_CHARGES


@<TRIPOS>ATOM
      1 C1         -8.6482    1.5623   65.6450 C.3     1  ZINC000963156778   -0.0800
      2 C2        -10.0895    1.3114   65.2833 C.2     1  ZINC000963156778    0.0300
      3 C3        -10.4818    0.6639   64.1615 C.2     1  ZINC000963156778   -0.2600
      4 C4         -9.6131    0.0780   63.0784 C.3     1  ZINC000963156778    0.1300
      5 N5        -10.2642   -1.1146   62.5200 N.3     1  ZINC000963156778   -0.5000
      6 C6         -9.2725   -2.0041   61.8627 C.3     1  ZINC000963156778    0.0600
      7 C7        -10.1081   -2.8720   60.8974 C.3     1  ZINC000963156778   -0.1700
      8 H8        -10.1521   -3.9437   61.0913 H       1  ZINC000963156778    0.1200
      9 C9        -11.3786   -2.0449   60.6126 C.3     1  ZINC000963156778   -0.1700
     10 H10       -12.3670   -2.5034   60.5805 H       1  ZINC000963156778    0.1200
     11 C11       -11.2038   -0.7468   61.4297 C.3     1  ZINC000963156778    0.0600
     12 C12       -10.3391   -2.3528   59.4768 C.3     1  ZINC000963156778    0.1200
     13 H13        -9.7147   -1.5291   59.1306 H       1  ZINC000963156778    0.1400
     14 N14       -10.7270   -3.3248   58.4517 N.am    1  ZINC000963156778   -0.7000
     15 C15       -10.7531   -2.9616   57.1541 C.2     1  ZINC000963156778    0.5100
     16 O16       -10.4541   -1.8304   56.8350 O.2     1  ZINC000963156778   -0.5000
     17 C17       -11.1539   -3.9610   56.0998 C.3     1  ZINC000963156778   -0.1300
     18 C18       -12.6643   -3.8813   55.8695 C.3     1  ZINC000963156778   -0.1100
     19 H19       -12.9876   -2.8421   55.8083 H       1  ZINC000963156778    0.1300
     20 C20       -13.4240   -4.6211   56.9894 C.3     1  ZINC000963156778   -0.1600
     21 C21       -14.1618   -5.7178   56.2530 C.2     1  ZINC000963156778    0.5300
     22 O22       -14.8890   -6.5414   56.7653 O.2     1  ZINC000963156778   -0.4800
     23 N23       -13.8847   -5.6341   54.9459 N.am    1  ZINC000963156778   -0.6900
     24 C24       -13.0523   -4.6343   54.6157 C.2     1  ZINC000963156778    0.5200
     25 O25       -12.6718   -4.3791   53.4933 O.2     1  ZINC000963156778   -0.4500
     26 S26       -12.2004    0.6623   64.2557 S.3     1  ZINC000963156778    0.4500
     27 N27       -12.2873    1.4298   65.6169 N.2     1  ZINC000963156778   -0.2900
     28 N28       -11.1080    1.6930   66.0267 N.2     1  ZINC000963156778   -0.2400
     29 H29        -8.2707    0.7265   66.2342 H       1  ZINC000963156778    0.0900
     30 H30        -8.0570    1.6613   64.7346 H       1  ZINC000963156778    0.0800
     31 H31        -8.5744    2.4803   66.2280 H       1  ZINC000963156778    0.0800
     32 H32        -9.4684    0.8160   62.2895 H       1  ZINC000963156778    0.1000
     33 H33        -8.6461   -0.1991   63.4984 H       1  ZINC000963156778    0.0700
     34 H34        -8.5419   -1.4149   61.3085 H       1  ZINC000963156778    0.0600
     35 H35        -8.7744   -2.6305   62.6026 H       1  ZINC000963156778    0.0800
     36 H36       -12.1599   -0.4266   61.8437 H       1  ZINC000963156778    0.1000
     37 H37       -10.7755    0.0391   60.8077 H       1  ZINC000963156778    0.0500
     38 H38       -10.9651   -4.2298   58.7069 H       1  ZINC000963156778    0.4000
     39 H39       -10.6321   -3.7367   55.1695 H       1  ZINC000963156778    0.1000
     40 H40       -10.8894   -4.9651   56.4318 H       1  ZINC000963156778    0.1200
     41 H41       -12.7257   -5.0459   57.7107 H       1  ZINC000963156778    0.1200
     42 H42       -14.1270   -3.9506   57.4837 H       1  ZINC000963156778    0.1300
     43 H43       -14.2560   -6.2451   54.2904 H       1  ZINC000963156778    0.4200
@<TRIPOS>BOND
     1     1     2    1
     2     1    29    1
     3     1    30    1
     4     1    31    1
     5     2    28    1
     6     2     3    2
     7     3     4    1
     8     3    26    1
     9     4     5    1
    10     4    32    1
    11     4    33    1
    12     5    11    1
    13     5     6    1
    14     6     7    1
    15     6    34    1
    16     6    35    1
    17     7     8    1
    18     7    12    1
    19     7     9    1
    20     9    10    1
    21     9    11    1
    22     9    12    1
    23    11    36    1
    24    11    37    1
    25    12    13    1
    26    12    14    1
    27    14    15   am
    28    14    38    1
    29    15    16    2
    30    15    17    1
    31    17    18    1
    32    17    39    1
    33    17    40    1
    34    18    19    1
    35    18    24    1
    36    18    20    1
    37    20    21    1
    38    20    41    1
    39    20    42    1
    40    21    22    2
    41    21    23   am
    42    23    24   am
    43    23    43    1
    44    24    25    2
    45    26    27    1
    46    27    28    2
@<TRIPOS>SUBSTRUCTURE
     1 ZINC000963156778        1 TEMP              0 ****  ****    0 ROOT


##########                                Name:    ZINC000811540126
##########                DOCK_Rotatable_Bonds:                   7
##########                         Heavy_Atoms:                  21
##########                    Molecular_Weight:             397.212
##########                DOCK_Rotatable_Bonds:                   7
##########                       Formal_Charge:           0.0100001
##########                     HBond_Acceptors:                   4
##########                        HBond_Donors:                   3
##########                         Heavy_Atoms:                  21
##########                          Grid_Score:          -33.952824
##########                     Grid_vdw_energy:          -32.857025
##########                      Grid_es_energy:           -1.095797
##########           Internal_energy_repulsive:           12.553920

@<TRIPOS>MOLECULE
ZINC000811540126
 37 38 1 0 0
SMALL
USER_CHARGES


@<TRIPOS>ATOM
      1 C1        -12.4748   -1.9381   60.5712 C.3     1  ZINC000811540126   -0.1600
      2 C2        -11.4078   -2.6164   59.7095 C.3     1  ZINC000811540126    0.1200
      3 H3        -11.1258   -3.5671   60.1619 H       1  ZINC000811540126    0.1000
      4 N4        -11.9431   -2.8542   58.3667 N.am    1  ZINC000811540126   -0.7200
      5 C5        -11.6000   -3.9696   57.6923 C.2     1  ZINC000811540126    0.5700
      6 O6        -10.8474   -4.7791   58.1991 O.2     1  ZINC000811540126   -0.5100
      7 C7        -12.1375   -4.2083   56.3394 C.ar    1  ZINC000811540126   -0.1600
      8 C8        -11.6561   -3.4746   55.2528 C.ar    1  ZINC000811540126   -0.0400
      9 C9        -12.1628   -3.7026   53.9909 C.ar    1  ZINC000811540126   -0.1200
     10 I10       -11.4397   -2.6012   52.3620 I       1  ZINC000811540126   -0.0300
     11 C11       -13.1478   -4.6571   53.7953 C.ar    1  ZINC000811540126   -0.0400
     12 C12       -13.6327   -5.3890   54.8612 C.ar    1  ZINC000811540126   -0.1500
     13 C13       -13.1304   -5.1768   56.1361 C.ar    1  ZINC000811540126    0.1900
     14 O14       -13.6055   -5.8955   57.1840 O.3     1  ZINC000811540126   -0.4700
     15 C15       -10.1777   -1.7115   59.6152 C.3     1  ZINC000811540126    0.1400
     16 H16       -10.2968   -1.0221   58.7794 H       1  ZINC000811540126    0.1300
     17 O17        -9.0119   -2.5121   59.4099 O.3     1  ZINC000811540126   -0.5400
     18 C18       -10.0305   -0.9289   60.8947 C.ar    1  ZINC000811540126   -0.1200
     19 C19       -10.5568    0.3458   60.9896 C.ar    1  ZINC000811540126   -0.1100
     20 C20       -10.4219    1.0638   62.1632 C.ar    1  ZINC000811540126   -0.1100
     21 C21        -9.7609    0.5068   63.2420 C.ar    1  ZINC000811540126   -0.1200
     22 C22        -9.2352   -0.7683   63.1473 C.ar    1  ZINC000811540126   -0.1100
     23 C23        -9.3741   -1.4878   61.9752 C.ar    1  ZINC000811540126   -0.1100
     24 H24       -13.3513   -2.5827   60.6384 H       1  ZINC000811540126    0.0600
     25 H25       -12.0765   -1.7611   61.5702 H       1  ZINC000811540126    0.0700
     26 H26       -12.7569   -0.9874   60.1188 H       1  ZINC000811540126    0.0700
     27 H27       -12.5444   -2.2091   57.9630 H       1  ZINC000811540126    0.3900
     28 H28       -10.8884   -2.7296   55.4008 H       1  ZINC000811540126    0.1300
     29 H29       -13.5390   -4.8296   52.8035 H       1  ZINC000811540126    0.1400
     30 H30       -14.4008   -6.1311   54.7009 H       1  ZINC000811540126    0.1500
     31 H31       -13.2024   -5.6670   58.0328 H       1  ZINC000811540126    0.4000
     32 H32        -8.1807   -2.0250   59.4928 H       1  ZINC000811540126    0.3700
     33 H33       -11.0733    0.7809   60.1467 H       1  ZINC000811540126    0.1100
     34 H34       -10.8325    2.0599   62.2371 H       1  ZINC000811540126    0.1200
     35 H35        -9.6548    1.0679   64.1586 H       1  ZINC000811540126    0.1200
     36 H36        -8.7186   -1.2032   63.9901 H       1  ZINC000811540126    0.1300
     37 H37        -8.9634   -2.4840   61.9013 H       1  ZINC000811540126    0.1200
@<TRIPOS>BOND
     1     1     2    1
     2     1    24    1
     3     1    25    1
     4     1    26    1
     5     2     3    1
     6     2     4    1
     7     2    15    1
     8     4     5   am
     9     4    27    1
    10     5     6    2
    11     5     7    1
    12     7    13   ar
    13     7     8   ar
    14     8     9   ar
    15     8    28    1
    16     9    10    1
    17     9    11   ar
    18    11    12   ar
    19    11    29    1
    20    12    13   ar
    21    12    30    1
    22    13    14    1
    23    14    31    1
    24    15    16    1
    25    15    17    1
    26    15    18    1
    27    17    32    1
    28    18    23   ar
    29    18    19   ar
    30    19    20   ar
    31    19    33    1
    32    20    21   ar
    33    20    34    1
    34    21    22   ar
    35    21    35    1
    36    22    23   ar
    37    22    36    1
    38    23    37    1
@<TRIPOS>SUBSTRUCTURE
     1 ZINC000811540126        1 TEMP              0 ****  ****    0 ROOT


##########                                Name:    ZINC000000992968
##########                DOCK_Rotatable_Bonds:                   8
##########                         Heavy_Atoms:                  27
##########                    Molecular_Weight:             384.772
##########                DOCK_Rotatable_Bonds:                   8
##########                       Formal_Charge:           0.0199999
##########                     HBond_Acceptors:                   7
##########                        HBond_Donors:                   0
##########                         Heavy_Atoms:                  27
##########                          Grid_Score:          -33.950756
##########                     Grid_vdw_energy:          -34.171867
##########                      Grid_es_energy:            0.221110
##########           Internal_energy_repulsive:            4.345655

@<TRIPOS>MOLECULE
ZINC000000992968
 40 42 1 0 0
SMALL
USER_CHARGES


@<TRIPOS>ATOM
      1 O1        -12.0997   -2.5161   51.2520 O.2     1  ZINC000000992968   -0.4600
      2 C2        -11.7106   -2.8772   52.3463 C.2     1  ZINC000000992968    0.5600
      3 O3        -10.4278   -2.6679   52.7092 O.3     1  ZINC000000992968   -0.2900
      4 C4         -9.8975   -1.4376   52.4938 C.ar    1  ZINC000000992968    0.1200
      5 C5        -10.4666   -0.3221   53.0985 C.ar    1  ZINC000000992968   -0.1300
      6 C6         -9.9329    0.9278   52.8830 C.ar    1  ZINC000000992968   -0.0400
      7 C7         -8.8145    1.0754   52.0536 C.ar    1  ZINC000000992968   -0.1600
      8 C8         -8.2404    2.4072   51.8205 C.2     1  ZINC000000992968    0.4000
      9 O9         -8.8638    3.2344   51.1894 O.2     1  ZINC000000992968   -0.4200
     10 C10        -6.8768    2.7459   52.3655 C.3     1  ZINC000000992968    0.0200
     11 O11        -5.8564    2.2444   51.4625 O.3     1  ZINC000000992968   -0.3300
     12 C12        -4.5738    2.3851   51.8502 C.2     1  ZINC000000992968    0.5100
     13 O13        -4.3163    2.6961   52.9959 O.2     1  ZINC000000992968   -0.5000
     14 C14        -3.4813    2.1613   50.8824 C.ar    1  ZINC000000992968   -0.1300
     15 C15        -2.2091    2.6830   51.1280 C.ar    1  ZINC000000992968   -0.0500
     16 C16        -1.1930    2.4702   50.2207 C.ar    1  ZINC000000992968   -0.1200
     17 C17        -1.4318    1.7410   49.0674 C.ar    1  ZINC000000992968    0.0000
     18 Cl18       -0.1473    1.4778   47.9296 Cl      1  ZINC000000992968   -0.0500
     19 C19        -2.6912    1.2205   48.8184 C.ar    1  ZINC000000992968   -0.1200
     20 C20        -3.7143    1.4220   49.7206 C.ar    1  ZINC000000992968   -0.0400
     21 C21        -8.2449   -0.0510   51.4475 C.ar    1  ZINC000000992968   -0.0600
     22 C22        -8.7832   -1.2972   51.6737 C.ar    1  ZINC000000992968   -0.1200
     23 C23       -12.6357   -3.5338   53.2724 C.2     1  ZINC000000992968   -0.0700
     24 C24       -13.9787   -3.7005   53.0825 C.2     1  ZINC000000992968   -0.0900
     25 C25       -14.4650   -4.3753   54.2125 C.2     1  ZINC000000992968   -0.2300
     26 C26       -13.4117   -4.5886   55.0326 C.2     1  ZINC000000992968    0.0200
     27 O27       -12.3107   -4.0854   54.4602 O.3     1  ZINC000000992968   -0.1500
     28 H28       -11.3293   -0.4370   53.7381 H       1  ZINC000000992968    0.1400
     29 H29       -10.3761    1.7936   53.3526 H       1  ZINC000000992968    0.1500
     30 H30        -6.7807    3.8277   52.4574 H       1  ZINC000000992968    0.1100
     31 H31        -6.7528    2.2855   53.3457 H       1  ZINC000000992968    0.1100
     32 H32        -2.0220    3.2523   52.0265 H       1  ZINC000000992968    0.1500
     33 H33        -0.2089    2.8731   50.4094 H       1  ZINC000000992968    0.1500
     34 H34        -2.8711    0.6526   47.9176 H       1  ZINC000000992968    0.1500
     35 H35        -4.6956    1.0155   49.5255 H       1  ZINC000000992968    0.1500
     36 H36        -7.3824    0.0575   50.8066 H       1  ZINC000000992968    0.1400
     37 H37        -8.3445   -2.1667   51.2069 H       1  ZINC000000992968    0.1400
     38 H38       -14.5544   -3.3759   52.2284 H       1  ZINC000000992968    0.1700
     39 H39       -15.4883   -4.6691   54.3931 H       1  ZINC000000992968    0.1700
     40 H40       -13.4511   -5.0865   55.9902 H       1  ZINC000000992968    0.2200
@<TRIPOS>BOND
     1     1     2    2
     2     2     3    1
     3     2    23    1
     4     3     4    1
     5     4    22   ar
     6     4     5   ar
     7     5     6   ar
     8     5    28    1
     9     6     7   ar
    10     6    29    1
    11     7     8    1
    12     7    21   ar
    13     8     9    2
    14     8    10    1
    15    10    11    1
    16    10    30    1
    17    10    31    1
    18    11    12    1
    19    12    13    2
    20    12    14    1
    21    14    20   ar
    22    14    15   ar
    23    15    16   ar
    24    15    32    1
    25    16    17   ar
    26    16    33    1
    27    17    18    1
    28    17    19   ar
    29    19    20   ar
    30    19    34    1
    31    20    35    1
    32    21    22   ar
    33    21    36    1
    34    22    37    1
    35    23    27    1
    36    23    24    2
    37    24    25    1
    38    24    38    1
    39    25    26    2
    40    25    39    1
    41    26    27    1
    42    26    40    1
@<TRIPOS>SUBSTRUCTURE
     1 ZINC000000992968        1 TEMP              0 ****  ****    0 ROOT


##########                                Name:    ZINC001217683559
##########                DOCK_Rotatable_Bonds:                   3
##########                         Heavy_Atoms:                  25
##########                    Molecular_Weight:             397.234
##########                DOCK_Rotatable_Bonds:                   3
##########                       Formal_Charge:          0.00999987
##########                     HBond_Acceptors:                   7
##########                        HBond_Donors:                   0
##########                         Heavy_Atoms:                  25
##########                          Grid_Score:          -33.949284
##########                     Grid_vdw_energy:          -34.757538
##########                      Grid_es_energy:            0.808254
##########           Internal_energy_repulsive:           29.315517

@<TRIPOS>MOLECULE
ZINC001217683559
 38 42 1 0 0
SMALL
USER_CHARGES


@<TRIPOS>ATOM
      1 Br1        -8.8092   -0.1626   65.5641 Br      1  ZINC001217683559    0.0100
      2 C2         -9.7409    1.2991   64.8084 C.ar    1  ZINC001217683559   -0.1200
      3 C3         -9.9633    2.4493   65.5486 C.ar    1  ZINC001217683559   -0.0500
      4 C4        -10.6512    3.4963   64.9535 C.ar    1  ZINC001217683559   -0.1500
      5 C5        -11.0922    3.3637   63.6491 C.ar    1  ZINC001217683559    0.1200
      6 N6        -10.8677    2.2590   62.9681 N.ar    1  ZINC001217683559   -0.4400
      7 C7        -10.2087    1.2373   63.4973 C.ar    1  ZINC001217683559    0.2200
      8 C8         -9.9795    0.0118   62.6909 C.2     1  ZINC001217683559    0.2100
      9 N9         -9.2287   -1.0061   63.0248 N.2     1  ZINC001217683559   -0.3300
     10 O10        -9.2487   -1.8489   62.1530 O.3     1  ZINC001217683559    0.1000
     11 C11       -10.0365   -1.4445   61.1443 C.2     1  ZINC001217683559    0.2300
     12 C12       -10.3218   -2.1858   59.8986 C.2     1  ZINC001217683559   -0.0600
     13 C13       -10.8312   -1.5301   58.8136 C.2     1  ZINC001217683559    0.1800
     14 N14       -11.0960   -2.2029   57.6664 N.pl3   1  ZINC001217683559   -0.2900
     15 N15       -11.6090   -1.8086   56.4222 N.2     1  ZINC001217683559   -0.3300
     16 C16       -11.6572   -2.8810   55.6678 C.2     1  ZINC001217683559    0.2800
     17 C17       -12.1458   -2.9186   54.2428 C.3     1  ZINC001217683559   -0.0300
     18 C18       -11.6533   -1.7365   53.3913 C.3     1  ZINC001217683559   -0.1200
     19 C19       -11.4607   -2.7439   52.2454 C.3     1  ZINC001217683559   -0.1400
     20 C20       -11.3064   -3.8257   53.3276 C.3     1  ZINC001217683559   -0.1200
     21 N21       -11.2097   -3.9262   56.3497 N.2     1  ZINC001217683559   -0.5300
     22 C22       -10.8594   -3.5461   57.5727 C.2     1  ZINC001217683559    0.2900
     23 C23       -10.3341   -4.2462   58.6763 C.2     1  ZINC001217683559   -0.1000
     24 C24       -10.0623   -3.5748   59.8255 C.2     1  ZINC001217683559   -0.0200
     25 N25       -10.5119   -0.2597   61.4811 N.2     1  ZINC001217683559   -0.4300
     26 H26        -9.6092    2.5285   66.5658 H       1  ZINC001217683559    0.1600
     27 H27       -10.8412    4.4062   65.5034 H       1  ZINC001217683559    0.1500
     28 H28       -11.6282    4.1772   63.1828 H       1  ZINC001217683559    0.1800
     29 H29       -11.0246   -0.4690   58.8702 H       1  ZINC001217683559    0.1900
     30 H30       -13.2186   -3.0956   54.1676 H       1  ZINC001217683559    0.1200
     31 H31       -12.4233   -0.9910   53.1925 H       1  ZINC001217683559    0.0700
     32 H32       -10.7214   -1.2989   53.7492 H       1  ZINC001217683559    0.1000
     33 H33       -12.3465   -2.8720   51.6232 H       1  ZINC001217683559    0.0800
     34 H34       -10.5544   -2.5756   51.6638 H       1  ZINC001217683559    0.0800
     35 H35       -10.2795   -3.9592   53.6680 H       1  ZINC001217683559    0.0900
     36 H36       -11.7961   -4.7667   53.0772 H       1  ZINC001217683559    0.0700
     37 H37       -10.1454   -5.3074   58.6082 H       1  ZINC001217683559    0.1700
     38 H38        -9.6594   -4.0987   60.6796 H       1  ZINC001217683559    0.1700
@<TRIPOS>BOND
     1     1     2    1
     2     2     7   ar
     3     2     3   ar
     4     3     4   ar
     5     3    26    1
     6     4     5   ar
     7     4    27    1
     8     5     6   ar
     9     5    28    1
    10     6     7   ar
    11     7     8    1
    12     8    25    1
    13     8     9    2
    14     9    10    1
    15    10    11    1
    16    11    12    1
    17    11    25    2
    18    12    24    1
    19    12    13    2
    20    13    14    1
    21    13    29    1
    22    14    22    1
    23    14    15    1
    24    15    16    2
    25    16    17    1
    26    16    21    1
    27    17    20    1
    28    17    18    1
    29    17    30    1
    30    18    19    1
    31    18    31    1
    32    18    32    1
    33    19    20    1
    34    19    33    1
    35    19    34    1
    36    20    35    1
    37    20    36    1
    38    21    22    2
    39    22    23    1
    40    23    24    2
    41    23    37    1
    42    24    38    1
@<TRIPOS>SUBSTRUCTURE
     1 ZINC001217683559        1 TEMP              0 ****  ****    0 ROOT


##########                                Name:    ZINC001018437438
##########                DOCK_Rotatable_Bonds:                   8
##########                         Heavy_Atoms:                  24
##########                    Molecular_Weight:              333.39
##########                DOCK_Rotatable_Bonds:                   8
##########                       Formal_Charge:        -4.17233e-07
##########                     HBond_Acceptors:                   8
##########                        HBond_Donors:                   4
##########                         Heavy_Atoms:                  24
##########                          Grid_Score:          -33.910213
##########                     Grid_vdw_energy:          -34.457268
##########                      Grid_es_energy:            0.547053
##########           Internal_energy_repulsive:           87.161774

@<TRIPOS>MOLECULE
ZINC001018437438
 47 49 1 0 0
SMALL
USER_CHARGES


@<TRIPOS>ATOM
      1 C1        -14.4026   -5.1833   56.9965 C.3     1  ZINC001018437438   -0.1400
      2 C2        -13.2590   -4.9492   56.0075 C.3     1  ZINC001018437438    0.1400
      3 H3        -12.6883   -5.8697   55.8842 H       1  ZINC001018437438    0.0700
      4 C4        -13.8309   -4.5145   54.6545 C.3     1  ZINC001018437438   -0.1300
      5 C5        -12.6813   -4.1482   53.7130 C.3     1  ZINC001018437438   -0.1300
      6 C6        -11.8908   -2.9776   54.3018 C.3     1  ZINC001018437438    0.1300
      7 H7        -12.5550   -2.1254   54.4449 H       1  ZINC001018437438    0.1000
      8 N8        -10.8102   -2.6068   53.3847 N.am    1  ZINC001018437438   -0.7200
      9 C9        -10.4135   -1.3219   53.2952 C.2     1  ZINC001018437438    0.6000
     10 O10       -10.9516   -0.4703   53.9768 O.2     1  ZINC001018437438   -0.5100
     11 C11        -9.3292   -0.9492   52.3726 C.2     1  ZINC001018437438   -0.0400
     12 C12        -8.9333    0.3322   52.0305 C.2     1  ZINC001018437438   -0.1400
     13 C13        -7.8760    0.1656   51.1332 C.2     1  ZINC001018437438    0.0600
     14 C14        -7.0959    1.2690   50.4665 C.3     1  ZINC001018437438   -0.0800
     15 C15        -6.0135    1.9675   51.2921 C.3     1  ZINC001018437438   -0.1700
     16 C16        -5.6181    1.0084   50.1675 C.3     1  ZINC001018437438   -0.1600
     17 N17        -7.6826   -1.1190   50.9748 N.2     1  ZINC001018437438   -0.2600
     18 N18        -8.5080   -1.7985   51.6868 N.pl3   1  ZINC001018437438   -0.3800
     19 C19       -11.2968   -3.3949   55.6508 C.3     1  ZINC001018437438    0.1000
     20 N20       -12.3785   -3.8881   56.5148 N.am    1  ZINC001018437438   -0.6100
     21 C21       -12.5622   -3.3733   57.7467 C.2     1  ZINC001018437438    0.5200
     22 O22       -13.4614   -3.7856   58.4484 O.2     1  ZINC001018437438   -0.4800
     23 C23       -11.6502   -2.2852   58.2523 C.3     1  ZINC001018437438   -0.1700
     24 C24       -11.9325   -2.0305   59.7106 C.2     1  ZINC001018437438    0.5200
     25 N25       -11.3267   -2.7776   60.6547 N.am    1  ZINC001018437438   -0.8600
     26 O26       -12.7048   -1.1533   60.0345 O.2     1  ZINC001018437438   -0.5000
     27 H27       -14.9100   -4.2393   57.1954 H       1  ZINC001018437438    0.0700
     28 H28       -15.1111   -5.8939   56.5710 H       1  ZINC001018437438    0.0500
     29 H29       -14.0015   -5.5835   57.9277 H       1  ZINC001018437438    0.0800
     30 H30       -14.4076   -5.3329   54.2234 H       1  ZINC001018437438    0.0900
     31 H31       -14.4770   -3.6478   54.7942 H       1  ZINC001018437438    0.0700
     32 H32       -12.0221   -5.0080   53.5933 H       1  ZINC001018437438    0.0700
     33 H33       -13.0845   -3.8621   52.7416 H       1  ZINC001018437438    0.0800
     34 H34       -10.3802   -3.2861   52.8419 H       1  ZINC001018437438    0.4000
     35 H35        -9.3528    1.2630   52.3825 H       1  ZINC001018437438    0.1700
     36 H36        -7.6544    1.8749   49.7529 H       1  ZINC001018437438    0.1200
     37 H37        -5.8599    3.0331   51.1220 H       1  ZINC001018437438    0.1000
     38 H38        -5.8658    1.6288   52.3176 H       1  ZINC001018437438    0.1000
     39 H39        -5.2102    0.0388   50.4530 H       1  ZINC001018437438    0.1000
     40 H40        -5.2045    1.4431   49.2575 H       1  ZINC001018437438    0.1000
     41 H41        -8.5468   -2.7668   51.7262 H       1  ZINC001018437438    0.4400
     42 H42       -10.5640   -4.1872   55.4980 H       1  ZINC001018437438    0.0700
     43 H43       -10.8169   -2.5361   56.1201 H       1  ZINC001018437438    0.0900
     44 H44       -10.6124   -2.5960   58.1321 H       1  ZINC001018437438    0.1200
     45 H45       -11.8241   -1.3719   57.6836 H       1  ZINC001018437438    0.1200
     46 H46       -11.5092   -2.6146   61.5933 H       1  ZINC001018437438    0.4000
     47 H47       -10.7081   -3.4784   60.3955 H       1  ZINC001018437438    0.4000
@<TRIPOS>BOND
     1     1     2    1
     2     1    27    1
     3     1    28    1
     4     1    29    1
     5     2     3    1
     6     2    20    1
     7     2     4    1
     8     4     5    1
     9     4    30    1
    10     4    31    1
    11     5     6    1
    12     5    32    1
    13     5    33    1
    14     6     7    1
    15     6     8    1
    16     6    19    1
    17     8     9   am
    18     8    34    1
    19     9    10    2
    20     9    11    1
    21    11    18    1
    22    11    12    2
    23    12    13    1
    24    12    35    1
    25    13    14    1
    26    13    17    2
    27    14    16    1
    28    14    15    1
    29    14    36    1
    30    15    16    1
    31    15    37    1
    32    15    38    1
    33    16    39    1
    34    16    40    1
    35    17    18    1
    36    18    41    1
    37    19    20    1
    38    19    42    1
    39    19    43    1
    40    20    21   am
    41    21    22    2
    42    21    23    1
    43    23    24    1
    44    23    44    1
    45    23    45    1
    46    24    25   am
    47    24    26    2
    48    25    46    1
    49    25    47    1
@<TRIPOS>SUBSTRUCTURE
     1 ZINC001018437438        1 TEMP              0 ****  ****    0 ROOT


##########                                Name:    ZINC000939075213
##########                DOCK_Rotatable_Bonds:                   7
##########                         Heavy_Atoms:                  24
##########                    Molecular_Weight:             327.426
##########                DOCK_Rotatable_Bonds:                   7
##########                       Formal_Charge:          -0.0200002
##########                     HBond_Acceptors:                   5
##########                        HBond_Donors:                   2
##########                         Heavy_Atoms:                  24
##########                          Grid_Score:          -33.862095
##########                     Grid_vdw_energy:          -33.895203
##########                      Grid_es_energy:            0.033108
##########           Internal_energy_repulsive:            8.039378

@<TRIPOS>MOLECULE
ZINC000939075213
 49 51 1 0 0
SMALL
USER_CHARGES


@<TRIPOS>ATOM
      1 C1        -14.2512   -4.3672   56.3748 C.3     1  ZINC000939075213   -0.1400
      2 C2        -13.3748   -3.3435   55.6503 C.3     1  ZINC000939075213   -0.1100
      3 H3        -13.6632   -2.3268   55.9172 H       1  ZINC000939075213    0.0900
      4 C4        -13.4300   -3.5519   54.1164 C.3     1  ZINC000939075213    0.1100
      5 N5        -12.1657   -2.9854   53.6127 N.am    1  ZINC000939075213   -0.6200
      6 C6        -11.9536   -2.5246   52.3640 C.2     1  ZINC000939075213    0.5600
      7 O7        -12.8515   -2.5580   51.5420 O.2     1  ZINC000939075213   -0.5400
      8 C8        -10.6875   -2.0021   52.0081 C.2     1  ZINC000939075213   -0.2600
      9 C9        -10.3520   -0.7370   52.3631 C.2     1  ZINC000939075213    0.0400
     10 C10        -9.0846   -0.2136   52.0069 C.2     1  ZINC000939075213    0.0000
     11 C11        -8.1205   -0.8511   51.2479 C.2     1  ZINC000939075213   -0.1500
     12 C12        -7.0353    0.0240   51.1435 C.2     1  ZINC000939075213   -0.2200
     13 C13        -7.3448    1.1547   51.8232 C.2     1  ZINC000939075213    0.0200
     14 N14        -8.5900    1.0253   52.3483 N.pl3   1  ZINC000939075213   -0.5000
     15 C15       -11.1745   -3.0053   54.6985 C.3     1  ZINC000939075213    0.0900
     16 C16       -11.8717   -3.5906   55.9453 C.3     1  ZINC000939075213    0.1400
     17 H17       -11.6674   -4.6575   56.0360 H       1  ZINC000939075213    0.1100
     18 N18       -11.4520   -2.8796   57.1555 N.am    1  ZINC000939075213   -0.7200
     19 C19       -11.0073   -3.5713   58.2233 C.2     1  ZINC000939075213    0.5300
     20 O20       -10.9560   -4.7824   58.1830 O.2     1  ZINC000939075213   -0.5300
     21 C21       -10.5739   -2.8398   59.4675 C.3     1  ZINC000939075213   -0.0600
     22 C22        -9.4213   -3.5820   60.1467 C.3     1  ZINC000939075213   -0.1300
     23 C23       -10.1660   -1.4243   59.1309 C.2     1  ZINC000939075213   -0.1700
     24 C24       -10.6669   -0.5749   59.9861 C.2     1  ZINC000939075213   -0.1400
     25 C25       -11.4923   -1.2821   61.0356 C.3     1  ZINC000939075213   -0.1100
     26 C26       -11.7636   -2.6845   60.4431 C.3     1  ZINC000939075213   -0.1100
     27 H27       -14.1310   -4.2509   57.4519 H       1  ZINC000939075213    0.0600
     28 H28       -15.2954   -4.2063   56.1063 H       1  ZINC000939075213    0.0700
     29 H29       -13.9518   -5.3736   56.0823 H       1  ZINC000939075213    0.0600
     30 H30       -13.4907   -4.6142   53.8797 H       1  ZINC000939075213    0.0700
     31 H31       -14.2805   -3.0187   53.6916 H       1  ZINC000939075213    0.0800
     32 H32        -9.9885   -2.6108   51.4538 H       1  ZINC000939075213    0.1300
     33 H33       -11.0511   -0.1283   52.9175 H       1  ZINC000939075213    0.1500
     34 H34        -8.1921   -1.8390   50.8174 H       1  ZINC000939075213    0.1400
     35 H35        -6.1133   -0.1672   50.6146 H       1  ZINC000939075213    0.1400
     36 H36        -6.7063    2.0194   51.9272 H       1  ZINC000939075213    0.1600
     37 H37        -9.0519    1.6922   52.8801 H       1  ZINC000939075213    0.4100
     38 H38       -10.3290   -3.6331   54.4170 H       1  ZINC000939075213    0.0800
     39 H39       -10.8329   -1.9915   54.9073 H       1  ZINC000939075213    0.0700
     40 H40       -11.4940   -1.9111   57.1882 H       1  ZINC000939075213    0.4000
     41 H41        -8.5813   -3.6584   59.4562 H       1  ZINC000939075213    0.0600
     42 H42        -9.1111   -3.0350   61.0369 H       1  ZINC000939075213    0.0700
     43 H43        -9.7500   -4.5817   60.4307 H       1  ZINC000939075213    0.0600
     44 H44        -9.5417   -1.1514   58.2930 H       1  ZINC000939075213    0.1300
     45 H45       -10.5113    0.4931   59.9487 H       1  ZINC000939075213    0.1300
     46 H46       -10.9320   -1.3654   61.9670 H       1  ZINC000939075213    0.0800
     47 H47       -12.4301   -0.7522   61.2018 H       1  ZINC000939075213    0.0800
     48 H48       -12.7134   -2.7064   59.9086 H       1  ZINC000939075213    0.0900
     49 H49       -11.7357   -3.4492   61.2192 H       1  ZINC000939075213    0.0800
@<TRIPOS>BOND
     1     1     2    1
     2     1    27    1
     3     1    28    1
     4     1    29    1
     5     2     3    1
     6     2    16    1
     7     2     4    1
     8     4     5    1
     9     4    30    1
    10     4    31    1
    11     5     6   am
    12     5    15    1
    13     6     7    2
    14     6     8    1
    15     8     9    2
    16     8    32    1
    17     9    10    1
    18     9    33    1
    19    10    14    1
    20    10    11    2
    21    11    12    1
    22    11    34    1
    23    12    13    2
    24    12    35    1
    25    13    14    1
    26    13    36    1
    27    14    37    1
    28    15    16    1
    29    15    38    1
    30    15    39    1
    31    16    17    1
    32    16    18    1
    33    18    19   am
    34    18    40    1
    35    19    20    2
    36    19    21    1
    37    21    26    1
    38    21    22    1
    39    21    23    1
    40    22    41    1
    41    22    42    1
    42    22    43    1
    43    23    24    2
    44    23    44    1
    45    24    25    1
    46    24    45    1
    47    25    26    1
    48    25    46    1
    49    25    47    1
    50    26    48    1
    51    26    49    1
@<TRIPOS>SUBSTRUCTURE
     1 ZINC000939075213        1 TEMP              0 ****  ****    0 ROOT


##########                                Name:    ZINC000672622940
##########                DOCK_Rotatable_Bonds:                   7
##########                         Heavy_Atoms:                  30
##########                    Molecular_Weight:             416.523
##########                DOCK_Rotatable_Bonds:                   7
##########                       Formal_Charge:          -0.0100002
##########                     HBond_Acceptors:                   9
##########                        HBond_Donors:                   1
##########                         Heavy_Atoms:                  30
##########                          Grid_Score:          -33.839329
##########                     Grid_vdw_energy:          -32.220173
##########                      Grid_es_energy:           -1.619155
##########           Internal_energy_repulsive:           26.236217

@<TRIPOS>MOLECULE
ZINC000672622940
 62 65 1 0 0
SMALL
USER_CHARGES


@<TRIPOS>ATOM
      1 C1        -15.2045    0.7986   51.5383 C.3     1  ZINC000672622940    0.0800
      2 N2        -13.7541    0.9424   51.3912 N.am    1  ZINC000672622940   -0.6200
      3 C3        -13.2055    1.9979   50.5361 C.3     1  ZINC000672622940    0.0700
      4 C4        -12.9243    0.1035   52.0427 C.2     1  ZINC000672622940    0.5200
      5 O5        -11.7235    0.2234   51.9222 O.2     1  ZINC000672622940   -0.5300
      6 C6        -13.4887   -0.9833   52.9209 C.3     1  ZINC000672622940   -0.1000
      7 H7        -14.3288   -0.5890   53.4925 H       1  ZINC000672622940    0.1000
      8 C8        -13.9662   -2.1467   52.0494 C.3     1  ZINC000672622940   -0.1300
      9 C9        -14.5391   -3.2502   52.9410 C.3     1  ZINC000672622940   -0.1100
     10 C10       -13.4555   -3.7438   53.9017 C.3     1  ZINC000672622940   -0.1300
     11 C11       -12.9781   -2.5803   54.7732 C.3     1  ZINC000672622940    0.1400
     12 H12       -13.8182   -2.1860   55.3448 H       1  ZINC000672622940    0.1000
     13 N13       -11.9404   -3.0530   55.6931 N.am    1  ZINC000672622940   -0.6900
     14 C14       -12.2609   -3.3764   56.9616 C.2     1  ZINC000672622940    0.5100
     15 O15       -13.4092   -3.2776   57.3413 O.2     1  ZINC000672622940   -0.5100
     16 C16       -11.2021   -3.8569   57.9005 C.2     1  ZINC000672622940    0.5100
     17 O17       -11.0107   -5.0468   58.0416 O.2     1  ZINC000672622940   -0.5200
     18 N18       -10.4597   -2.9684   58.5905 N.am    1  ZINC000672622940   -0.5800
     19 C19       -10.6837   -1.5248   58.4349 C.3     1  ZINC000672622940    0.0700
     20 C20       -10.9076   -0.9085   59.8194 C.3     1  ZINC000672622940   -0.1200
     21 C21        -9.7308   -1.2674   60.7296 C.3     1  ZINC000672622940    0.0000
     22 C22        -9.9311   -0.6344   62.0824 C.2     1  ZINC000672622940    0.2000
     23 N23        -9.5841   -1.1421   63.2334 N.2     1  ZINC000672622940   -0.2800
     24 N24        -9.9047   -0.3314   64.1784 N.2     1  ZINC000672622940   -0.2800
     25 C25       -10.4707    0.7318   63.6716 C.2     1  ZINC000672622940    0.1500
     26 C26       -11.0897    2.0609   64.0464 C.3     1  ZINC000672622940   -0.0400
     27 C27       -11.1179    2.8554   62.7207 C.3     1  ZINC000672622940   -0.1300
     28 C28       -11.1336    1.7213   61.6727 C.3     1  ZINC000672622940    0.1000
     29 N29       -10.5001    0.5715   62.3297 N.pl3   1  ZINC000672622940   -0.4900
     30 C30        -9.6492   -2.7877   60.8850 C.3     1  ZINC000672622940   -0.1200
     31 C31        -9.4151   -3.4254   59.5172 C.3     1  ZINC000672622940    0.1100
     32 C32       -12.4051   -1.4769   53.8816 C.3     1  ZINC000672622940   -0.1100
     33 H33       -15.5822    0.1218   50.7718 H       1  ZINC000672622940    0.0600
     34 H34       -15.4315    0.3936   52.5244 H       1  ZINC000672622940    0.0800
     35 H35       -15.6793    1.7736   51.4279 H       1  ZINC000672622940    0.0700
     36 H36       -13.0516    2.9009   51.1269 H       1  ZINC000672622940    0.0600
     37 H37       -12.2533    1.6696   50.1194 H       1  ZINC000672622940    0.0800
     38 H38       -13.9035    2.2084   49.7258 H       1  ZINC000672622940    0.0700
     39 H39       -14.7382   -1.7951   51.3650 H       1  ZINC000672622940    0.0800
     40 H40       -13.1259   -2.5411   51.4778 H       1  ZINC000672622940    0.0700
     41 H41       -15.3792   -2.8559   53.5127 H       1  ZINC000672622940    0.0700
     42 H42       -14.8792   -4.0790   52.3201 H       1  ZINC000672622940    0.0700
     43 H43       -13.8636   -4.5299   54.5369 H       1  ZINC000672622940    0.0700
     44 H44       -12.6153   -4.1381   53.3301 H       1  ZINC000672622940    0.0700
     45 H45       -11.0228   -3.1331   55.3892 H       1  ZINC000672622940    0.4100
     46 H46        -9.8110   -1.0678   57.9683 H       1  ZINC000672622940    0.0700
     47 H47       -11.5631   -1.3563   57.8134 H       1  ZINC000672622940    0.1400
     48 H48       -10.9794    0.1753   59.7280 H       1  ZINC000672622940    0.0800
     49 H49       -11.8307   -1.3000   60.2469 H       1  ZINC000672622940    0.0800
     50 H50        -8.8050   -0.8974   60.2891 H       1  ZINC000672622940    0.0900
     51 H51       -12.1013    1.9169   64.4261 H       1  ZINC000672622940    0.1000
     52 H52       -10.4736    2.5736   64.7852 H       1  ZINC000672622940    0.1000
     53 H53       -12.0193    3.4642   62.6500 H       1  ZINC000672622940    0.1100
     54 H54       -10.2242    3.4708   62.6159 H       1  ZINC000672622940    0.0900
     55 H55       -12.1592    1.4821   61.3917 H       1  ZINC000672622940    0.1000
     56 H56       -10.5592    2.0128   60.7934 H       1  ZINC000672622940    0.1000
     57 H57        -8.8253   -3.0416   61.5521 H       1  ZINC000672622940    0.0800
     58 H58       -10.5842   -3.1614   61.3025 H       1  ZINC000672622940    0.0800
     59 H59        -9.4551   -4.5109   59.6085 H       1  ZINC000672622940    0.1000
     60 H60        -8.4393   -3.1245   59.1359 H       1  ZINC000672622940    0.0800
     61 H61       -11.5649   -1.8713   53.3099 H       1  ZINC000672622940    0.0800
     62 H62       -12.0650   -0.6481   54.5025 H       1  ZINC000672622940    0.0800
@<TRIPOS>BOND
     1     1     2    1
     2     1    33    1
     3     1    34    1
     4     1    35    1
     5     2     3    1
     6     2     4   am
     7     3    36    1
     8     3    37    1
     9     3    38    1
    10     4     5    2
    11     4     6    1
    12     6     7    1
    13     6    32    1
    14     6     8    1
    15     8     9    1
    16     8    39    1
    17     8    40    1
    18     9    10    1
    19     9    41    1
    20     9    42    1
    21    10    11    1
    22    10    43    1
    23    10    44    1
    24    11    12    1
    25    11    13    1
    26    11    32    1
    27    13    14   am
    28    13    45    1
    29    14    15    2
    30    14    16    1
    31    16    17    2
    32    16    18   am
    33    18    31    1
    34    18    19    1
    35    19    20    1
    36    19    46    1
    37    19    47    1
    38    20    21    1
    39    20    48    1
    40    20    49    1
    41    21    22    1
    42    21    30    1
    43    21    50    1
    44    22    29    1
    45    22    23    2
    46    23    24    1
    47    24    25    2
    48    25    29    1
    49    25    26    1
    50    26    27    1
    51    26    51    1
    52    26    52    1
    53    27    28    1
    54    27    53    1
    55    27    54    1
    56    28    29    1
    57    28    55    1
    58    28    56    1
    59    30    31    1
    60    30    57    1
    61    30    58    1
    62    31    59    1
    63    31    60    1
    64    32    61    1
    65    32    62    1
@<TRIPOS>SUBSTRUCTURE
     1 ZINC000672622940        1 TEMP              0 ****  ****    0 ROOT


##########                                Name:    ZINC000809503567
##########                DOCK_Rotatable_Bonds:                   9
##########                         Heavy_Atoms:                  26
##########                    Molecular_Weight:             353.378
##########                DOCK_Rotatable_Bonds:                   9
##########                       Formal_Charge:          -0.0200002
##########                     HBond_Acceptors:                   7
##########                        HBond_Donors:                   1
##########                         Heavy_Atoms:                  26
##########                          Grid_Score:          -33.831303
##########                     Grid_vdw_energy:          -33.046303
##########                      Grid_es_energy:           -0.784999
##########           Internal_energy_repulsive:           13.551598

@<TRIPOS>MOLECULE
ZINC000809503567
 45 46 1 0 0
SMALL
USER_CHARGES


@<TRIPOS>ATOM
      1 C1         -9.0270    0.0358   64.0898 C.3     1  ZINC000809503567    0.0200
      2 O2        -10.2954   -0.2815   63.5130 O.3     1  ZINC000809503567   -0.3100
      3 C3        -10.3325   -0.4641   62.1688 C.ar    1  ZINC000809503567    0.1900
      4 C4         -9.6895   -1.5501   61.5959 C.ar    1  ZINC000809503567   -0.2100
      5 C5         -9.7280   -1.7349   60.2274 C.ar    1  ZINC000809503567   -0.0200
      6 C6        -10.4068   -0.8393   59.4183 C.ar    1  ZINC000809503567   -0.1500
      7 C7        -10.4406   -1.0523   57.9268 C.3     1  ZINC000809503567    0.1700
      8 N8        -10.7701   -2.4508   57.6406 N.am    1  ZINC000809503567   -0.7000
      9 C9        -12.0407   -2.8829   57.7653 C.2     1  ZINC000809503567    0.5100
     10 O10       -12.9114   -2.1139   58.1160 O.2     1  ZINC000809503567   -0.4900
     11 C11       -12.3771   -4.3091   57.4716 C.2     1  ZINC000809503567    0.5100
     12 O12       -11.6015   -5.1909   57.7775 O.2     1  ZINC000809503567   -0.5000
     13 N13       -13.5418   -4.6159   56.8669 N.am    1  ZINC000809503567   -0.4600
     14 C14       -13.8708   -6.0138   56.5773 C.3     1  ZINC000809503567    0.0800
     15 O15       -14.4475   -3.5871   56.5114 O.3     1  ZINC000809503567   -0.1100
     16 C16       -14.7459   -3.5323   55.1150 C.3     1  ZINC000809503567    0.0800
     17 C17       -13.4623   -3.4463   54.3301 C.ar    1  ZINC000809503567   -0.0900
     18 C18       -12.9874   -4.5571   53.6582 C.ar    1  ZINC000809503567   -0.1000
     19 C19       -11.8099   -4.4783   52.9382 C.ar    1  ZINC000809503567   -0.1300
     20 C20       -11.1077   -3.2886   52.8898 C.ar    1  ZINC000809503567   -0.1100
     21 C21       -11.5831   -2.1775   53.5611 C.ar    1  ZINC000809503567   -0.1300
     22 C22       -12.7628   -2.2552   54.2775 C.ar    1  ZINC000809503567   -0.0800
     23 C23       -11.0525    0.2462   59.9712 C.ar    1  ZINC000809503567   -0.0100
     24 C24       -11.0263    0.4417   61.3540 C.ar    1  ZINC000809503567   -0.0600
     25 C25       -11.6947    1.5670   61.9350 C.1     1  ZINC000809503567    0.2600
     26 N26       -12.2249    2.4597   62.3959 N.1     1  ZINC000809503567   -0.4100
     27 H27        -8.6533    0.9641   63.6577 H       1  ZINC000809503567    0.0600
     28 H28        -9.1377    0.1554   65.1676 H       1  ZINC000809503567    0.1100
     29 H29        -8.3225   -0.7702   63.8841 H       1  ZINC000809503567    0.0600
     30 H30        -9.1573   -2.2526   62.2200 H       1  ZINC000809503567    0.1400
     31 H31        -9.2254   -2.5827   59.7858 H       1  ZINC000809503567    0.1400
     32 H32       -11.1960   -0.4031   57.4840 H       1  ZINC000809503567    0.0900
     33 H33        -9.4644   -0.8151   57.5038 H       1  ZINC000809503567    0.0900
     34 H34       -10.0739   -3.0658   57.3614 H       1  ZINC000809503567    0.4100
     35 H35       -14.4071   -6.4437   57.4233 H       1  ZINC000809503567    0.0800
     36 H36       -14.4979   -6.0626   55.6871 H       1  ZINC000809503567    0.0800
     37 H37       -12.9524   -6.5753   56.4060 H       1  ZINC000809503567    0.0900
     38 H38       -15.2902   -4.4309   54.8242 H       1  ZINC000809503567    0.0700
     39 H39       -15.3577   -2.6542   54.9083 H       1  ZINC000809503567    0.0600
     40 H40       -13.5360   -5.4865   53.6960 H       1  ZINC000809503567    0.1200
     41 H41       -11.4385   -5.3462   52.4138 H       1  ZINC000809503567    0.1200
     42 H42       -10.1874   -3.2271   52.3280 H       1  ZINC000809503567    0.1200
     43 H43       -11.0342   -1.2481   53.5235 H       1  ZINC000809503567    0.1200
     44 H44       -13.1342   -1.3872   54.8019 H       1  ZINC000809503567    0.1300
     45 H45       -11.5807    0.9422   59.3365 H       1  ZINC000809503567    0.1400
@<TRIPOS>BOND
     1     1     2    1
     2     1    27    1
     3     1    28    1
     4     1    29    1
     5     2     3    1
     6     3    24   ar
     7     3     4   ar
     8     4     5   ar
     9     4    30    1
    10     5     6   ar
    11     5    31    1
    12     6     7    1
    13     6    23   ar
    14     7     8    1
    15     7    32    1
    16     7    33    1
    17     8     9   am
    18     8    34    1
    19     9    10    2
    20     9    11    1
    21    11    12    2
    22    11    13   am
    23    13    14    1
    24    13    15    1
    25    14    35    1
    26    14    36    1
    27    14    37    1
    28    15    16    1
    29    16    17    1
    30    16    38    1
    31    16    39    1
    32    17    22   ar
    33    17    18   ar
    34    18    19   ar
    35    18    40    1
    36    19    20   ar
    37    19    41    1
    38    20    21   ar
    39    20    42    1
    40    21    22   ar
    41    21    43    1
    42    22    44    1
    43    23    24   ar
    44    23    45    1
    45    24    25    1
    46    25    26    3
@<TRIPOS>SUBSTRUCTURE
     1 ZINC000809503567        1 TEMP              0 ****  ****    0 ROOT


##########                                Name:    ZINC001011267435
##########                DOCK_Rotatable_Bonds:                   7
##########                         Heavy_Atoms:                  24
##########                    Molecular_Weight:             331.458
##########                DOCK_Rotatable_Bonds:                   7
##########                       Formal_Charge:        -4.47035e-08
##########                     HBond_Acceptors:                   5
##########                        HBond_Donors:                   0
##########                         Heavy_Atoms:                  24
##########                          Grid_Score:          -33.819370
##########                     Grid_vdw_energy:          -33.701077
##########                      Grid_es_energy:           -0.118294
##########           Internal_energy_repulsive:           39.116055

@<TRIPOS>MOLECULE
ZINC001011267435
 53 54 1 0 0
SMALL
USER_CHARGES


@<TRIPOS>ATOM
      1 C1        -13.8673   -1.8851   51.3188 C.3     1  ZINC001011267435   -0.1500
      2 C2        -14.0707   -2.6664   52.6184 C.3     1  ZINC001011267435   -0.1200
      3 C3        -12.7163   -3.1510   53.1394 C.3     1  ZINC001011267435   -0.0700
      4 C4        -12.9090   -3.8623   54.4539 C.ar    1  ZINC001011267435    0.1300
      5 C5        -11.8686   -3.9108   55.3611 C.ar    1  ZINC001011267435   -0.1200
      6 C6        -12.0599   -4.5738   56.5774 C.ar    1  ZINC001011267435   -0.0800
      7 C7        -10.9733   -4.6513   57.5814 C.2     1  ZINC001011267435    0.5600
      8 O8        -10.3517   -5.6855   57.7255 O.2     1  ZINC001011267435   -0.5200
      9 N9        -10.6741   -3.5746   58.3350 N.am    1  ZINC001011267435   -0.6100
     10 C10       -11.4214   -2.3193   58.1758 C.3     1  ZINC001011267435    0.0700
     11 C11       -11.9905   -1.9113   59.5404 C.3     1  ZINC001011267435    0.1000
     12 N12       -10.9114   -1.9718   60.5363 N.am    1  ZINC001011267435   -0.6200
     13 C13       -10.6128   -0.8955   61.2905 C.2     1  ZINC001011267435    0.5300
     14 O14        -9.7200   -0.9575   62.1090 O.2     1  ZINC001011267435   -0.5300
     15 C15       -11.3880    0.3851   61.1166 C.3     1  ZINC001011267435   -0.1100
     16 H16       -12.4463    0.1552   60.9936 H       1  ZINC001011267435    0.0900
     17 C17       -10.8795    1.1249   59.8776 C.3     1  ZINC001011267435   -0.1500
     18 C18       -11.1980    1.2680   62.3515 C.3     1  ZINC001011267435   -0.0800
     19 C19       -11.9046    2.6076   62.1345 C.3     1  ZINC001011267435   -0.1500
     20 C20       -11.7946    0.5691   63.5748 C.3     1  ZINC001011267435   -0.1500
     21 C21       -10.1641   -3.2272   60.6954 C.3     1  ZINC001011267435    0.0900
     22 C22        -9.5988   -3.6369   59.3348 C.3     1  ZINC001011267435    0.1000
     23 C23       -13.3051   -5.1611   56.8197 C.ar    1  ZINC001011267435   -0.1600
     24 C24       -14.2904   -5.0643   55.8559 C.ar    1  ZINC001011267435    0.1100
     25 N25       -14.0698   -4.4253   54.7246 N.ar    1  ZINC001011267435   -0.4600
     26 H26       -13.2225   -1.0269   51.5078 H       1  ZINC001011267435    0.0600
     27 H27       -13.4024   -2.5321   50.5749 H       1  ZINC001011267435    0.0500
     28 H28       -14.8323   -1.5398   50.9476 H       1  ZINC001011267435    0.0600
     29 H29       -14.5357   -2.0194   53.3623 H       1  ZINC001011267435    0.0700
     30 H30       -14.7156   -3.5246   52.4294 H       1  ZINC001011267435    0.0600
     31 H31       -12.2733   -3.8365   52.4169 H       1  ZINC001011267435    0.0800
     32 H32       -12.0550   -2.2964   53.2823 H       1  ZINC001011267435    0.0900
     33 H33       -10.9214   -3.4439   55.1344 H       1  ZINC001011267435    0.1400
     34 H34       -10.7532   -1.5395   57.8102 H       1  ZINC001011267435    0.0800
     35 H35       -12.2374   -2.4665   57.4684 H       1  ZINC001011267435    0.1100
     36 H36       -12.3806   -0.8950   59.4850 H       1  ZINC001011267435    0.1100
     37 H37       -12.7887   -2.5973   59.8238 H       1  ZINC001011267435    0.0700
     38 H38       -11.3818    2.0890   59.7984 H       1  ZINC001011267435    0.0800
     39 H39        -9.8042    1.2814   59.9637 H       1  ZINC001011267435    0.0600
     40 H40       -11.0901    0.5313   58.9880 H       1  ZINC001011267435    0.0600
     41 H41       -10.1342    1.4406   62.5146 H       1  ZINC001011267435    0.0800
     42 H42       -11.7693    3.2366   63.0143 H       1  ZINC001011267435    0.0600
     43 H43       -11.4796    3.1055   61.2629 H       1  ZINC001011267435    0.0600
     44 H44       -12.9685    2.4349   61.9714 H       1  ZINC001011267435    0.0600
     45 H45       -11.2912   -0.3853   63.7295 H       1  ZINC001011267435    0.0600
     46 H46       -11.6593    1.1981   64.4546 H       1  ZINC001011267435    0.0600
     47 H47       -12.8585    0.3964   63.4118 H       1  ZINC001011267435    0.0500
     48 H48        -9.3481   -3.0800   61.4029 H       1  ZINC001011267435    0.1000
     49 H49       -10.8324   -4.0069   61.0611 H       1  ZINC001011267435    0.0800
     50 H50        -9.2089   -4.6532   59.3916 H       1  ZINC001011267435    0.1100
     51 H51        -8.8006   -2.9518   59.0490 H       1  ZINC001011267435    0.0800
     52 H52       -13.4940   -5.6830   57.7463 H       1  ZINC001011267435    0.1500
     53 H53       -15.2556   -5.5151   56.0337 H       1  ZINC001011267435    0.1700
@<TRIPOS>BOND
     1     1     2    1
     2     1    26    1
     3     1    27    1
     4     1    28    1
     5     2     3    1
     6     2    29    1
     7     2    30    1
     8     3     4    1
     9     3    31    1
    10     3    32    1
    11     4    25   ar
    12     4     5   ar
    13     5     6   ar
    14     5    33    1
    15     6     7    1
    16     6    23   ar
    17     7     8    2
    18     7     9   am
    19     9    22    1
    20     9    10    1
    21    10    11    1
    22    10    34    1
    23    10    35    1
    24    11    12    1
    25    11    36    1
    26    11    37    1
    27    12    13   am
    28    12    21    1
    29    13    14    2
    30    13    15    1
    31    15    16    1
    32    15    17    1
    33    15    18    1
    34    17    38    1
    35    17    39    1
    36    17    40    1
    37    18    19    1
    38    18    20    1
    39    18    41    1
    40    19    42    1
    41    19    43    1
    42    19    44    1
    43    20    45    1
    44    20    46    1
    45    20    47    1
    46    21    22    1
    47    21    48    1
    48    21    49    1
    49    22    50    1
    50    22    51    1
    51    23    24   ar
    52    23    52    1
    53    24    25   ar
    54    24    53    1
@<TRIPOS>SUBSTRUCTURE
     1 ZINC001011267435        1 TEMP              0 ****  ****    0 ROOT


##########                                Name:    ZINC001362451754
##########                DOCK_Rotatable_Bonds:                   6
##########                         Heavy_Atoms:                  22
##########                    Molecular_Weight:             339.846
##########                DOCK_Rotatable_Bonds:                   6
##########                       Formal_Charge:         -0.00999987
##########                     HBond_Acceptors:                   7
##########                        HBond_Donors:                   1
##########                         Heavy_Atoms:                  22
##########                          Grid_Score:          -33.808216
##########                     Grid_vdw_energy:          -33.359146
##########                      Grid_es_energy:           -0.449070
##########           Internal_energy_repulsive:           16.665396

@<TRIPOS>MOLECULE
ZINC001362451754
 40 42 1 0 0
SMALL
USER_CHARGES


@<TRIPOS>ATOM
      1 C1         -9.2196   -2.8011   60.3116 C.3     1  ZINC001362451754   -0.1700
      2 C2        -10.7367   -2.9229   60.4687 C.3     1  ZINC001362451754    0.1400
      3 H3        -10.9781   -3.7693   61.1117 H       1  ZINC001362451754    0.0800
      4 C4        -11.3075   -1.6236   61.0751 C.3     1  ZINC001362451754   -0.1000
      5 H5        -12.1391   -1.8434   61.7446 H       1  ZINC001362451754    0.1000
      6 C6        -10.2144   -0.8414   61.8060 C.3     1  ZINC001362451754    0.0900
      7 O7        -10.8079    0.2234   62.5515 O.3     1  ZINC001362451754   -0.5700
      8 C8        -11.7989   -0.8442   59.8268 C.3     1  ZINC001362451754   -0.1200
      9 C9        -12.3054   -1.9912   58.9208 C.3     1  ZINC001362451754    0.0900
     10 N10       -11.3632   -3.1014   59.1507 N.am    1  ZINC001362451754   -0.6100
     11 C11       -11.1131   -4.1100   58.2923 C.2     1  ZINC001362451754    0.6100
     12 O12       -10.3115   -4.9764   58.5885 O.2     1  ZINC001362451754   -0.5200
     13 C13       -11.8067   -4.1632   57.0021 C.2     1  ZINC001362451754   -0.2500
     14 C14       -12.8010   -5.0406   56.6721 C.2     1  ZINC001362451754   -0.0500
     15 C15       -13.2716   -4.8726   55.3915 C.2     1  ZINC001362451754   -0.1100
     16 C16       -12.6917   -3.8855   54.6986 C.2     1  ZINC001362451754   -0.2500
     17 C17       -13.0456   -3.5145   53.2815 C.3     1  ZINC001362451754    0.2100
     18 N18       -12.0483   -2.5774   52.7584 N.pl3   1  ZINC001362451754   -0.3700
     19 C19       -10.7454   -2.8493   52.5301 C.2     1  ZINC001362451754    0.0700
     20 C20       -10.1682   -1.7244   52.0463 C.2     1  ZINC001362451754   -0.1800
     21 Cl21       -8.5031   -1.5461   51.5887 Cl      1  ZINC001362451754   -0.0400
     22 C22       -11.1497   -0.7289   51.9860 C.2     1  ZINC001362451754    0.0700
     23 N23       -12.2765   -1.2392   52.4125 N.2     1  ZINC001362451754   -0.2700
     24 S24       -11.4924   -3.1084   55.6307 S.3     1  ZINC001362451754    0.2300
     25 H25        -8.9882   -1.9565   59.6625 H       1  ZINC001362451754    0.0600
     26 H26        -8.7646   -2.6432   61.2894 H       1  ZINC001362451754    0.0700
     27 H27        -8.8253   -3.7167   59.8709 H       1  ZINC001362451754    0.0700
     28 H28        -9.6828   -1.5081   62.4850 H       1  ZINC001362451754    0.0500
     29 H29        -9.5143   -0.4298   61.0789 H       1  ZINC001362451754    0.0500
     30 H30       -10.3358    0.4442   63.3659 H       1  ZINC001362451754    0.3800
     31 H31       -12.6087   -0.1620   60.0859 H       1  ZINC001362451754    0.0900
     32 H32       -10.9768   -0.3088   59.3518 H       1  ZINC001362451754    0.0800
     33 H33       -12.2844   -1.6863   57.8745 H       1  ZINC001362451754    0.0800
     34 H34       -13.3144   -2.2836   59.2114 H       1  ZINC001362451754    0.0800
     35 H35       -13.1767   -5.7940   57.3487 H       1  ZINC001362451754    0.1600
     36 H36       -14.0547   -5.4896   54.9762 H       1  ZINC001362451754    0.1500
     37 H37       -13.0596   -4.4123   52.6635 H       1  ZINC001362451754    0.1100
     38 H38       -14.0293   -3.0455   53.2635 H       1  ZINC001362451754    0.1100
     39 H39       -10.2528   -3.7951   52.7005 H       1  ZINC001362451754    0.1800
     40 H40       -11.0025    0.2858   51.6463 H       1  ZINC001362451754    0.1900
@<TRIPOS>BOND
     1     1     2    1
     2     1    25    1
     3     1    26    1
     4     1    27    1
     5     2     3    1
     6     2    10    1
     7     2     4    1
     8     4     5    1
     9     4     6    1
    10     4     8    1
    11     6     7    1
    12     6    28    1
    13     6    29    1
    14     7    30    1
    15     8     9    1
    16     8    31    1
    17     8    32    1
    18     9    10    1
    19     9    33    1
    20     9    34    1
    21    10    11   am
    22    11    12    2
    23    11    13    1
    24    13    24    1
    25    13    14    2
    26    14    15    1
    27    14    35    1
    28    15    16    2
    29    15    36    1
    30    16    17    1
    31    16    24    1
    32    17    18    1
    33    17    37    1
    34    17    38    1
    35    18    23    1
    36    18    19    1
    37    19    20    2
    38    19    39    1
    39    20    21    1
    40    20    22    1
    41    22    23    2
    42    22    40    1
@<TRIPOS>SUBSTRUCTURE
     1 ZINC001362451754        1 TEMP              0 ****  ****    0 ROOT


##########                                Name:    ZINC001091652821
##########                DOCK_Rotatable_Bonds:                   4
##########                         Heavy_Atoms:                  24
##########                    Molecular_Weight:             345.465
##########                DOCK_Rotatable_Bonds:                   4
##########                       Formal_Charge:          -0.0199997
##########                     HBond_Acceptors:                   6
##########                        HBond_Donors:                   0
##########                         Heavy_Atoms:                  24
##########                          Grid_Score:          -33.800438
##########                     Grid_vdw_energy:          -32.150860
##########                      Grid_es_energy:           -1.649580
##########           Internal_energy_repulsive:            4.039314

@<TRIPOS>MOLECULE
ZINC001091652821
 47 50 1 0 0
SMALL
USER_CHARGES


@<TRIPOS>ATOM
      1 C1        -12.0102   -2.9514   52.2490 C.3     1  ZINC001091652821   -0.1000
      2 C2        -12.3891   -3.6159   53.5474 C.2     1  ZINC001091652821   -0.1200
      3 C3        -13.5563   -4.2478   53.7168 C.2     1  ZINC001091652821   -0.2400
      4 S4        -13.6797   -4.8900   55.2926 S.3     1  ZINC001091652821    0.2100
      5 C5        -12.0899   -4.2727   55.7206 C.2     1  ZINC001091652821   -0.2700
      6 C6        -11.4368   -4.4351   57.0228 C.2     1  ZINC001091652821    0.6100
      7 O7        -11.2416   -5.5497   57.4709 O.2     1  ZINC001091652821   -0.5200
      8 N8        -11.0525   -3.3500   57.7239 N.am    1  ZINC001091652821   -0.6200
      9 C9        -11.2204   -1.9421   57.3282 C.3     1  ZINC001091652821    0.0900
     10 C10       -11.3981   -1.1435   58.6300 C.3     1  ZINC001091652821   -0.0900
     11 H11       -10.8819   -0.1841   58.5950 H       1  ZINC001091652821    0.1100
     12 C12       -12.9048   -0.9804   58.9200 C.3     1  ZINC001091652821    0.0400
     13 N13       -13.0403   -1.2532   60.3737 N.3     1  ZINC001091652821   -0.5000
     14 C14       -14.4214   -1.6200   60.7141 C.3     1  ZINC001091652821    0.1200
     15 C15       -14.7115   -1.2189   62.1374 C.2     1  ZINC001091652821    0.0000
     16 C16       -14.2899   -0.0985   62.7469 C.2     1  ZINC001091652821   -0.0800
     17 O17       -14.7679   -0.1283   64.0064 O.3     1  ZINC001091652821   -0.2000
     18 C18       -15.4711   -1.2595   64.1497 C.2     1  ZINC001091652821    0.1900
     19 C19       -16.1825   -1.6977   65.4039 C.3     1  ZINC001091652821   -0.0600
     20 N20       -15.4438   -1.9153   63.0247 N.2     1  ZINC001091652821   -0.4700
     21 C21       -12.1125   -2.3866   60.6200 C.3     1  ZINC001091652821    0.0400
     22 C22       -10.8484   -2.0626   59.7513 C.3     1  ZINC001091652821   -0.0700
     23 C23        -9.7355   -1.4133   60.5763 C.3     1  ZINC001091652821   -0.1300
     24 C24       -10.3888   -3.3412   59.0377 C.3     1  ZINC001091652821    0.1200
     25 C25       -11.5583   -3.6222   54.6428 C.2     1  ZINC001091652821   -0.0500
     26 H26       -11.4958   -3.6693   51.6101 H       1  ZINC001091652821    0.0700
     27 H27       -12.9100   -2.5970   51.7461 H       1  ZINC001091652821    0.0700
     28 H28       -11.3508   -2.1075   52.4515 H       1  ZINC001091652821    0.0700
     29 H29       -14.3189   -4.3388   52.9574 H       1  ZINC001091652821    0.1700
     30 H30       -10.3353   -1.5955   56.7946 H       1  ZINC001091652821    0.0800
     31 H31       -12.1037   -1.8332   56.6990 H       1  ZINC001091652821    0.0800
     32 H32       -13.2277    0.0355   58.6926 H       1  ZINC001091652821    0.0800
     33 H33       -13.4830   -1.7018   58.3428 H       1  ZINC001091652821    0.0500
     34 H34       -15.1097   -1.1050   60.0440 H       1  ZINC001091652821    0.0500
     35 H35       -14.5481   -2.6974   60.6072 H       1  ZINC001091652821    0.1000
     36 H36       -13.6820    0.6798   62.3096 H       1  ZINC001091652821    0.2100
     37 H37       -16.0377   -0.9501   66.1839 H       1  ZINC001091652821    0.0900
     38 H38       -17.2474   -1.8067   65.1985 H       1  ZINC001091652821    0.1000
     39 H39       -15.7770   -2.6532   65.7368 H       1  ZINC001091652821    0.1000
     40 H40       -11.8380   -2.4308   61.6739 H       1  ZINC001091652821    0.0900
     41 H41       -12.5680   -3.3256   60.3056 H       1  ZINC001091652821    0.0500
     42 H42        -9.4216   -2.0972   61.3649 H       1  ZINC001091652821    0.0600
     43 H43        -8.8868   -1.1902   59.9298 H       1  ZINC001091652821    0.0600
     44 H44       -10.1053   -0.4899   61.0221 H       1  ZINC001091652821    0.0700
     45 H45       -10.7030   -4.2187   59.6030 H       1  ZINC001091652821    0.0900
     46 H46        -9.3047   -3.3373   58.9244 H       1  ZINC001091652821    0.0800
     47 H47       -10.5857   -3.1529   54.6529 H       1  ZINC001091652821    0.1500
@<TRIPOS>BOND
     1     1     2    1
     2     1    26    1
     3     1    27    1
     4     1    28    1
     5     2    25    1
     6     2     3    2
     7     3     4    1
     8     3    29    1
     9     4     5    1
    10     5     6    1
    11     5    25    2
    12     6     7    2
    13     6     8   am
    14     8    24    1
    15     8     9    1
    16     9    10    1
    17     9    30    1
    18     9    31    1
    19    10    11    1
    20    10    22    1
    21    10    12    1
    22    12    13    1
    23    12    32    1
    24    12    33    1
    25    13    14    1
    26    13    21    1
    27    14    15    1
    28    14    34    1
    29    14    35    1
    30    15    20    1
    31    15    16    2
    32    16    17    1
    33    16    36    1
    34    17    18    1
    35    18    19    1
    36    18    20    2
    37    19    37    1
    38    19    38    1
    39    19    39    1
    40    21    22    1
    41    21    40    1
    42    21    41    1
    43    22    23    1
    44    22    24    1
    45    23    42    1
    46    23    43    1
    47    23    44    1
    48    24    45    1
    49    24    46    1
    50    25    47    1
@<TRIPOS>SUBSTRUCTURE
     1 ZINC001091652821        1 TEMP              0 ****  ****    0 ROOT


##########                                Name:    ZINC000962855438
##########                DOCK_Rotatable_Bonds:                   7
##########                         Heavy_Atoms:                  27
##########                    Molecular_Weight:             370.448
##########                DOCK_Rotatable_Bonds:                   7
##########                       Formal_Charge:           0.0300005
##########                     HBond_Acceptors:                   6
##########                        HBond_Donors:                   2
##########                         Heavy_Atoms:                  27
##########                          Grid_Score:          -33.800331
##########                     Grid_vdw_energy:          -32.520424
##########                      Grid_es_energy:           -1.279909
##########           Internal_energy_repulsive:           12.802263

@<TRIPOS>MOLECULE
ZINC000962855438
 53 56 1 0 0
SMALL
USER_CHARGES


@<TRIPOS>ATOM
      1 C1        -12.1119    0.5973   53.6130 C.3     1  ZINC000962855438   -0.1100
      2 C2        -12.5585   -0.7944   53.9801 C.2     1  ZINC000962855438   -0.1700
      3 C3        -13.3489   -1.0152   55.2009 C.2     1  ZINC000962855438    0.5600
      4 O4        -13.5845   -0.0858   55.9491 O.2     1  ZINC000962855438   -0.5400
      5 N5        -13.8118   -2.2474   55.4904 N.am    1  ZINC000962855438   -0.7100
      6 C6        -14.5975   -2.4676   56.7072 C.3     1  ZINC000962855438    0.1500
      7 H7        -15.3880   -1.7229   56.7993 H       1  ZINC000962855438    0.1200
      8 C8        -13.6888   -2.4711   57.9617 C.3     1  ZINC000962855438    0.1000
      9 N9        -14.4240   -3.2716   58.9578 N.am    1  ZINC000962855438   -0.6100
     10 C10       -14.2807   -3.1856   60.2952 C.2     1  ZINC000962855438    0.5800
     11 O11       -14.9431   -3.8980   61.0247 O.2     1  ZINC000962855438   -0.5200
     12 C12       -13.3200   -2.2270   60.8740 C.ar    1  ZINC000962855438   -0.1500
     13 C13       -13.7776   -1.1613   61.6489 C.ar    1  ZINC000962855438   -0.0600
     14 C14       -12.8826   -0.2636   62.1902 C.ar    1  ZINC000962855438   -0.1500
     15 C15       -11.5242   -0.4169   61.9616 C.ar    1  ZINC000962855438   -0.0500
     16 C16       -11.0619   -1.4637   61.1958 C.ar    1  ZINC000962855438   -0.1800
     17 C17       -11.9408   -2.3896   60.6500 C.ar    1  ZINC000962855438    0.1600
     18 O18       -11.2775   -3.3481   59.9519 O.3     1  ZINC000962855438   -0.2800
     19 C19        -9.9618   -2.8705   59.6232 C.3     1  ZINC000962855438    0.0700
     20 H20        -9.9649   -2.3632   58.6585 H       1  ZINC000962855438    0.0900
     21 C21        -8.9515   -4.0195   59.6260 C.3     1  ZINC000962855438   -0.1500
     22 C22        -9.6648   -1.8746   60.7715 C.3     1  ZINC000962855438   -0.1100
     23 C23       -15.3400   -4.1785   58.2508 C.3     1  ZINC000962855438    0.0700
     24 C24       -15.1810   -3.9049   56.7399 C.3     1  ZINC000962855438    0.0900
     25 H25       -16.1476   -3.9414   56.2375 H       1  ZINC000962855438    0.0900
     26 O26       -14.2714   -4.8363   56.1504 O.3     1  ZINC000962855438   -0.5600
     27 C27       -12.2383   -1.8230   53.2002 C.2     1  ZINC000962855438   -0.0600
     28 C28       -12.4823   -3.3172   53.2036 C.3     1  ZINC000962855438   -0.1000
     29 C29       -11.1915   -3.4596   52.3820 C.3     1  ZINC000962855438   -0.1400
     30 C30       -11.4725   -2.0214   51.9093 C.3     1  ZINC000962855438   -0.1100
     31 H31       -11.1381    0.7961   54.0605 H       1  ZINC000962855438    0.0700
     32 H32       -12.0375    0.6808   52.5287 H       1  ZINC000962855438    0.0700
     33 H33       -12.8371    1.3214   53.9843 H       1  ZINC000962855438    0.0700
     34 H34       -13.6248   -2.9884   54.8930 H       1  ZINC000962855438    0.4100
     35 H35       -12.7298   -2.9363   57.7343 H       1  ZINC000962855438    0.0800
     36 H36       -13.5413   -1.4545   58.3262 H       1  ZINC000962855438    0.0900
     37 H37       -14.8360   -1.0390   61.8251 H       1  ZINC000962855438    0.1400
     38 H38       -13.2397    0.5592   62.7918 H       1  ZINC000962855438    0.1400
     39 H39       -10.8249    0.2884   62.3859 H       1  ZINC000962855438    0.1300
     40 H40        -9.2343   -4.7539   58.8720 H       1  ZINC000962855438    0.0700
     41 H41        -7.9586   -3.6307   59.4002 H       1  ZINC000962855438    0.0800
     42 H42        -8.9417   -4.4923   60.6081 H       1  ZINC000962855438    0.0700
     43 H43        -9.1040   -1.0145   60.4059 H       1  ZINC000962855438    0.1000
     44 H44        -9.1336   -2.3666   61.5862 H       1  ZINC000962855438    0.1000
     45 H45       -15.0790   -5.2139   58.4699 H       1  ZINC000962855438    0.0800
     46 H46       -16.3673   -3.9804   58.5566 H       1  ZINC000962855438    0.0800
     47 H47       -13.9875   -4.5974   55.2575 H       1  ZINC000962855438    0.3900
     48 H48       -12.4197   -3.7667   54.1947 H       1  ZINC000962855438    0.0900
     49 H49       -13.3795   -3.6134   52.6601 H       1  ZINC000962855438    0.1000
     50 H50       -10.2918   -3.5598   52.9892 H       1  ZINC000962855438    0.0900
     51 H51       -11.2553   -4.2022   51.5868 H       1  ZINC000962855438    0.0800
     52 H52       -12.0953   -1.9702   51.0162 H       1  ZINC000962855438    0.1000
     53 H53       -10.5773   -1.4037   51.8372 H       1  ZINC000962855438    0.0800
@<TRIPOS>BOND
     1     1     2    1
     2     1    31    1
     3     1    32    1
     4     1    33    1
     5     2     3    1
     6     2    27    2
     7     3     4    2
     8     3     5   am
     9     5     6    1
    10     5    34    1
    11     6     7    1
    12     6    24    1
    13     6     8    1
    14     8     9    1
    15     8    35    1
    16     8    36    1
    17     9    10   am
    18     9    23    1
    19    10    11    2
    20    10    12    1
    21    12    17   ar
    22    12    13   ar
    23    13    14   ar
    24    13    37    1
    25    14    15   ar
    26    14    38    1
    27    15    16   ar
    28    15    39    1
    29    16    22    1
    30    16    17   ar
    31    17    18    1
    32    18    19    1
    33    19    20    1
    34    19    21    1
    35    19    22    1
    36    21    40    1
    37    21    41    1
    38    21    42    1
    39    22    43    1
    40    22    44    1
    41    23    24    1
    42    23    45    1
    43    23    46    1
    44    24    25    1
    45    24    26    1
    46    26    47    1
    47    27    30    1
    48    27    28    1
    49    28    29    1
    50    28    48    1
    51    28    49    1
    52    29    30    1
    53    29    50    1
    54    29    51    1
    55    30    52    1
    56    30    53    1
@<TRIPOS>SUBSTRUCTURE
     1 ZINC000962855438        1 TEMP              0 ****  ****    0 ROOT


##########                                Name:    ZINC001342629575
##########                DOCK_Rotatable_Bonds:                   9
##########                         Heavy_Atoms:                  29
##########                    Molecular_Weight:             396.533
##########                DOCK_Rotatable_Bonds:                   9
##########                       Formal_Charge:         -0.00999976
##########                     HBond_Acceptors:                   6
##########                        HBond_Donors:                   0
##########                         Heavy_Atoms:                  29
##########                          Grid_Score:          -33.790619
##########                     Grid_vdw_energy:          -33.130276
##########                      Grid_es_energy:           -0.660344
##########           Internal_energy_repulsive:           20.897343

@<TRIPOS>MOLECULE
ZINC001342629575
 61 64 1 0 0
SMALL
USER_CHARGES


@<TRIPOS>ATOM
      1 C1        -14.5691   -2.0526   51.9886 C.2     1  ZINC001342629575   -0.1800
      2 C2        -13.5418   -2.6813   52.5037 C.2     1  ZINC001342629575   -0.1600
      3 C3        -12.1423   -2.2964   52.0986 C.3     1  ZINC001342629575   -0.0800
      4 C4        -11.6302   -1.1895   53.0224 C.3     1  ZINC001342629575    0.0500
      5 H5        -12.3585   -0.3792   53.0568 H       1  ZINC001342629575    0.0900
      6 C6        -11.4304   -1.7446   54.4090 C.2     1  ZINC001342629575    0.2000
      7 N7        -11.2644   -2.9984   54.7223 N.2     1  ZINC001342629575   -0.2700
      8 N8        -11.1228   -3.1199   55.9940 N.2     1  ZINC001342629575   -0.3000
      9 C9        -11.1914   -1.9404   56.5649 C.2     1  ZINC001342629575    0.3400
     10 N10       -11.0829   -1.6738   57.9205 N.3     1  ZINC001342629575   -0.4300
     11 C11        -9.7525   -2.0841   58.4389 C.3     1  ZINC001342629575    0.0400
     12 C12        -9.9598   -2.2419   59.9606 C.3     1  ZINC001342629575   -0.1200
     13 C13       -11.4692   -2.5088   60.1340 C.3     1  ZINC001342629575   -0.1200
     14 C14       -12.0470   -2.4900   58.7025 C.3     1  ZINC001342629575    0.0700
     15 H15       -12.1016   -3.5019   58.3012 H       1  ZINC001342629575    0.0900
     16 C16       -13.4312   -1.8384   58.6944 C.3     1  ZINC001342629575    0.1000
     17 H17       -13.3461   -0.7860   58.9653 H       1  ZINC001342629575    0.0700
     18 C18       -14.3573   -2.5634   59.6942 C.3     1  ZINC001342629575   -0.1400
     19 C19       -15.7110   -2.5857   58.9333 C.3     1  ZINC001342629575   -0.1600
     20 C20       -15.2235   -2.7386   57.4704 C.3     1  ZINC001342629575    0.0500
     21 O21       -14.0174   -1.9589   57.3929 O.3     1  ZINC001342629575   -0.3700
     22 N22       -11.3839   -1.0255   55.5711 N.pl3   1  ZINC001342629575   -0.4600
     23 C23       -11.5221    0.4254   55.7193 C.3     1  ZINC001342629575    0.1100
     24 C24       -10.1342    1.0676   55.7678 C.3     1  ZINC001342629575    0.0500
     25 O25        -9.5491    0.8411   57.0517 O.3     1  ZINC001342629575   -0.3800
     26 C26       -10.0990    1.6517   58.0921 C.3     1  ZINC001342629575    0.0300
     27 C27       -10.3188   -0.6641   52.4979 C.ar    1  ZINC001342629575   -0.0900
     28 C28       -10.1157    0.6987   52.3847 C.ar    1  ZINC001342629575   -0.0900
     29 C29        -8.9127    1.1806   51.9037 C.ar    1  ZINC001342629575   -0.1200
     30 C30        -7.9126    0.2999   51.5362 C.ar    1  ZINC001342629575   -0.1200
     31 C31        -8.1153   -1.0627   51.6501 C.ar    1  ZINC001342629575   -0.1200
     32 C32        -9.3167   -1.5445   52.1353 C.ar    1  ZINC001342629575   -0.1100
     33 H33       -15.5721   -2.3285   52.2789 H       1  ZINC001342629575    0.1000
     34 H34       -14.4130   -1.2553   51.2771 H       1  ZINC001342629575    0.1000
     35 H35       -13.6978   -3.4757   53.2186 H       1  ZINC001342629575    0.1000
     36 H36       -11.4893   -3.1657   52.1767 H       1  ZINC001342629575    0.0900
     37 H37       -12.1477   -1.9374   51.0695 H       1  ZINC001342629575    0.0800
     38 H38        -9.4481   -3.0326   57.9964 H       1  ZINC001342629575    0.0600
     39 H39        -9.0103   -1.3126   58.2343 H       1  ZINC001342629575    0.0800
     40 H40        -9.3806   -3.0854   60.3361 H       1  ZINC001342629575    0.0800
     41 H41        -9.6755   -1.3259   60.4784 H       1  ZINC001342629575    0.0800
     42 H42       -11.6309   -3.4834   60.5946 H       1  ZINC001342629575    0.0800
     43 H43       -11.9257   -1.7239   60.7369 H       1  ZINC001342629575    0.0800
     44 H44       -14.0036   -3.5763   59.8864 H       1  ZINC001342629575    0.0900
     45 H45       -14.4436   -1.9988   60.6227 H       1  ZINC001342629575    0.0800
     46 H46       -16.3181   -3.4389   59.2362 H       1  ZINC001342629575    0.0800
     47 H47       -16.2544   -1.6508   59.0706 H       1  ZINC001342629575    0.0800
     48 H48       -15.0133   -3.7850   57.2491 H       1  ZINC001342629575    0.0600
     49 H49       -15.9707   -2.3477   56.7798 H       1  ZINC001342629575    0.0900
     50 H50       -12.0784    0.8260   54.8718 H       1  ZINC001342629575    0.1000
     51 H51       -12.0574    0.6470   56.6426 H       1  ZINC001342629575    0.1100
     52 H52        -9.5023    0.6256   54.9974 H       1  ZINC001342629575    0.0600
     53 H53       -10.2237    2.1398   55.5933 H       1  ZINC001342629575    0.0600
     54 H54        -9.6022    1.4199   59.0343 H       1  ZINC001342629575    0.0900
     55 H55        -9.9483    2.7039   57.8511 H       1  ZINC001342629575    0.0400
     56 H56       -11.1661    1.4494   58.1848 H       1  ZINC001342629575    0.0400
     57 H57       -10.8970    1.3867   52.6719 H       1  ZINC001342629575    0.1300
     58 H58        -8.7544    2.2452   51.8147 H       1  ZINC001342629575    0.1200
     59 H59        -6.9730    0.6764   51.1597 H       1  ZINC001342629575    0.1200
     60 H60        -7.3341   -1.7508   51.3627 H       1  ZINC001342629575    0.1200
     61 H61        -9.4751   -2.6092   52.2244 H       1  ZINC001342629575    0.1200
@<TRIPOS>BOND
     1     1     2    2
     2     1    33    1
     3     1    34    1
     4     2     3    1
     5     2    35    1
     6     3     4    1
     7     3    36    1
     8     3    37    1
     9     4     5    1
    10     4     6    1
    11     4    27    1
    12     6    22    1
    13     6     7    2
    14     7     8    1
    15     8     9    2
    16     9    10    1
    17     9    22    1
    18    10    14    1
    19    10    11    1
    20    11    12    1
    21    11    38    1
    22    11    39    1
    23    12    13    1
    24    12    40    1
    25    12    41    1
    26    13    14    1
    27    13    42    1
    28    13    43    1
    29    14    15    1
    30    14    16    1
    31    16    17    1
    32    16    21    1
    33    16    18    1
    34    18    19    1
    35    18    44    1
    36    18    45    1
    37    19    20    1
    38    19    46    1
    39    19    47    1
    40    20    21    1
    41    20    48    1
    42    20    49    1
    43    22    23    1
    44    23    24    1
    45    23    50    1
    46    23    51    1
    47    24    25    1
    48    24    52    1
    49    24    53    1
    50    25    26    1
    51    26    54    1
    52    26    55    1
    53    26    56    1
    54    27    32   ar
    55    27    28   ar
    56    28    29   ar
    57    28    57    1
    58    29    30   ar
    59    29    58    1
    60    30    31   ar
    61    30    59    1
    62    31    32   ar
    63    31    60    1
    64    32    61    1
@<TRIPOS>SUBSTRUCTURE
     1 ZINC001342629575        1 TEMP              0 ****  ****    0 ROOT


##########                                Name:    ZINC000523878927
##########                DOCK_Rotatable_Bonds:                   8
##########                         Heavy_Atoms:                  27
##########                    Molecular_Weight:             376.474
##########                DOCK_Rotatable_Bonds:                   8
##########                       Formal_Charge:          0.00999957
##########                     HBond_Acceptors:                   7
##########                        HBond_Donors:                   3
##########                         Heavy_Atoms:                  27
##########                          Grid_Score:          -33.779190
##########                     Grid_vdw_energy:          -31.007338
##########                      Grid_es_energy:           -2.771851
##########           Internal_energy_repulsive:           10.035518

@<TRIPOS>MOLECULE
ZINC000523878927
 56 58 1 0 0
SMALL
USER_CHARGES


@<TRIPOS>ATOM
      1 C1        -11.4911   -0.4833   53.6076 C.3     1  ZINC000523878927   -0.1500
      2 C2        -11.0185   -1.9088   53.3154 C.3     1  ZINC000523878927   -0.0900
      3 H3         -9.9384   -1.9107   53.1691 H       1  ZINC000523878927    0.0700
      4 C4        -11.7055   -2.4243   52.0491 C.3     1  ZINC000523878927   -0.1200
      5 C5        -13.2216   -2.4216   52.2544 C.3     1  ZINC000523878927   -0.1200
      6 C6        -13.5783   -3.3290   53.4336 C.3     1  ZINC000523878927   -0.1100
      7 C7        -12.8913   -2.8135   54.6997 C.3     1  ZINC000523878927   -0.1000
      8 H8        -13.2280   -1.7980   54.9080 H       1  ZINC000523878927    0.0800
      9 C9        -13.2479   -3.7209   55.8788 C.3     1  ZINC000523878927    0.1400
     10 N10       -12.6203   -3.2063   57.0985 N.am    1  ZINC000523878927   -0.7400
     11 C11       -11.5558   -3.8409   57.6279 C.2     1  ZINC000523878927    0.7200
     12 O12       -11.1171   -4.8414   57.0942 O.2     1  ZINC000523878927   -0.5800
     13 N13       -10.9775   -3.3665   58.7491 N.am    1  ZINC000523878927   -0.6400
     14 C14        -9.8130   -3.9588   59.4321 C.3     1  ZINC000523878927    0.1000
     15 C15        -9.1773   -2.7868   60.2207 C.3     1  ZINC000523878927   -0.1400
     16 C16       -10.4348   -2.0042   60.6830 C.3     1  ZINC000523878927    0.1500
     17 H17       -10.8538   -2.4467   61.5867 H       1  ZINC000523878927    0.1100
     18 N18       -10.1149   -0.5911   60.9004 N.am    1  ZINC000523878927   -0.7300
     19 C19       -10.6694    0.0742   61.9331 C.2     1  ZINC000523878927    0.7100
     20 O20       -11.4338   -0.4988   62.6853 O.2     1  ZINC000523878927   -0.5700
     21 N21       -10.3764    1.3746   62.1321 N.am    1  ZINC000523878927   -0.6800
     22 C22       -10.9526    2.0659   63.2053 C.ar    1  ZINC000523878927    0.1500
     23 C23       -10.6745    1.6808   64.5099 C.ar    1  ZINC000523878927   -0.1200
     24 C24       -11.2433    2.3641   65.5668 C.ar    1  ZINC000523878927   -0.1300
     25 C25       -12.0908    3.4323   65.3261 C.ar    1  ZINC000523878927    0.0800
     26 F26       -12.6465    4.0992   66.3612 F       1  ZINC000523878927   -0.1400
     27 C27       -12.3690    3.8183   64.0257 C.ar    1  ZINC000523878927   -0.1300
     28 C28       -11.7980    3.1409   62.9661 C.ar    1  ZINC000523878927   -0.0900
     29 C29       -11.3998   -2.1689   59.4901 C.3     1  ZINC000523878927    0.1200
     30 C30       -11.3751   -2.8162   54.4945 C.3     1  ZINC000523878927   -0.1100
     31 H31       -11.0016   -0.1161   54.5097 H       1  ZINC000523878927    0.0500
     32 H32       -11.2370    0.1631   52.7676 H       1  ZINC000523878927    0.0500
     33 H33       -12.5712   -0.4814   53.7539 H       1  ZINC000523878927    0.0600
     34 H34       -11.4514   -1.7778   51.2091 H       1  ZINC000523878927    0.0600
     35 H35       -11.3688   -3.4399   51.8410 H       1  ZINC000523878927    0.0600
     36 H36       -13.5583   -1.4061   52.4627 H       1  ZINC000523878927    0.0700
     37 H37       -13.7110   -2.7889   51.3523 H       1  ZINC000523878927    0.0600
     38 H38       -14.6585   -3.3271   53.5797 H       1  ZINC000523878927    0.0600
     39 H39       -13.2416   -4.3446   53.2253 H       1  ZINC000523878927    0.0600
     40 H40       -14.3300   -3.7410   56.0077 H       1  ZINC000523878927    0.0700
     41 H41       -12.8866   -4.7305   55.6826 H       1  ZINC000523878927    0.0700
     42 H42       -12.9711   -2.4088   57.5249 H       1  ZINC000523878927    0.3900
     43 H43       -10.1335   -4.7458   60.1147 H       1  ZINC000523878927    0.0800
     44 H44        -9.1055   -4.3531   58.7026 H       1  ZINC000523878927    0.0800
     45 H45        -8.6094   -3.1537   61.0756 H       1  ZINC000523878927    0.1000
     46 H46        -8.5518   -2.1733   59.5723 H       1  ZINC000523878927    0.0800
     47 H47        -9.5042   -0.1344   60.3011 H       1  ZINC000523878927    0.4000
     48 H48        -9.7664    1.8316   61.5321 H       1  ZINC000523878927    0.4100
     49 H49       -10.0140    0.8471   64.6981 H       1  ZINC000523878927    0.1400
     50 H50       -11.0273    2.0648   66.5818 H       1  ZINC000523878927    0.1400
     51 H51       -13.0302    4.6518   63.8399 H       1  ZINC000523878927    0.1400
     52 H52       -12.0150    3.4425   61.9520 H       1  ZINC000523878927    0.1500
     53 H53       -11.3468   -1.2908   58.8465 H       1  ZINC000523878927    0.0700
     54 H54       -12.4185   -2.3039   59.8534 H       1  ZINC000523878927    0.0800
     55 H55       -11.0385   -3.8318   54.2863 H       1  ZINC000523878927    0.0700
     56 H56       -10.8857   -2.4490   55.3966 H       1  ZINC000523878927    0.0700
@<TRIPOS>BOND
     1     1     2    1
     2     1    31    1
     3     1    32    1
     4     1    33    1
     5     2     3    1
     6     2    30    1
     7     2     4    1
     8     4     5    1
     9     4    34    1
    10     4    35    1
    11     5     6    1
    12     5    36    1
    13     5    37    1
    14     6     7    1
    15     6    38    1
    16     6    39    1
    17     7     8    1
    18     7     9    1
    19     7    30    1
    20     9    10    1
    21     9    40    1
    22     9    41    1
    23    10    11   am
    24    10    42    1
    25    11    12    2
    26    11    13   am
    27    13    29    1
    28    13    14    1
    29    14    15    1
    30    14    43    1
    31    14    44    1
    32    15    16    1
    33    15    45    1
    34    15    46    1
    35    16    17    1
    36    16    18    1
    37    16    29    1
    38    18    19   am
    39    18    47    1
    40    19    20    2
    41    19    21   am
    42    21    22    1
    43    21    48    1
    44    22    28   ar
    45    22    23   ar
    46    23    24   ar
    47    23    49    1
    48    24    25   ar
    49    24    50    1
    50    25    26    1
    51    25    27   ar
    52    27    28   ar
    53    27    51    1
    54    28    52    1
    55    29    53    1
    56    29    54    1
    57    30    55    1
    58    30    56    1
@<TRIPOS>SUBSTRUCTURE
     1 ZINC000523878927        1 TEMP              0 ****  ****    0 ROOT


##########                                Name:    ZINC001181473921
##########                DOCK_Rotatable_Bonds:                   9
##########                         Heavy_Atoms:                  24
##########                    Molecular_Weight:             357.431
##########                DOCK_Rotatable_Bonds:                   9
##########                       Formal_Charge:        -5.96046e-08
##########                     HBond_Acceptors:                   9
##########                        HBond_Donors:                   4
##########                         Heavy_Atoms:                  24
##########                          Grid_Score:          -33.761398
##########                     Grid_vdw_energy:          -32.813328
##########                      Grid_es_energy:           -0.948070
##########           Internal_energy_repulsive:           15.224037

@<TRIPOS>MOLECULE
ZINC001181473921
 47 48 1 0 0
SMALL
USER_CHARGES


@<TRIPOS>ATOM
      1 C1        -11.7923    1.3019   60.3093 C.3     1  ZINC001181473921   -0.1300
      2 C2        -10.9324    0.7223   61.4028 C.2     1  ZINC001181473921    0.1900
      3 C3        -10.6550    1.4644   62.4961 C.2     1  ZINC001181473921   -0.2400
      4 C4         -9.8519    0.9274   63.5220 C.2     1  ZINC001181473921    0.2500
      5 O5         -9.5651    1.6592   64.6252 O.3     1  ZINC001181473921   -0.4600
      6 C6         -9.3617   -0.3581   63.3854 C.2     1  ZINC001181473921   -0.3700
      7 C7         -9.6767   -1.0885   62.2336 C.2     1  ZINC001181473921    0.5300
      8 O8         -9.2519   -2.2254   62.0979 O.2     1  ZINC001181473921   -0.5500
      9 N9        -10.4513   -0.5425   61.2779 N.am    1  ZINC001181473921   -0.5000
     10 C10       -10.7721   -1.3203   60.0786 C.3     1  ZINC001181473921    0.1000
     11 C11       -11.7819   -2.4131   60.4346 C.3     1  ZINC001181473921   -0.1600
     12 C12       -12.7169   -2.6310   59.2728 C.2     1  ZINC001181473921    0.5200
     13 O13       -13.8184   -2.1234   59.2774 O.2     1  ZINC001181473921   -0.5300
     14 N14       -12.3289   -3.3898   58.2286 N.am    1  ZINC001181473921   -0.7200
     15 C15       -13.2385   -3.6029   57.1001 C.3     1  ZINC001181473921    0.1400
     16 H16       -14.2053   -3.1372   57.2918 H       1  ZINC001181473921    0.1000
     17 C17       -13.4057   -5.1148   56.8080 C.3     1  ZINC001181473921   -0.1300
     18 C18       -13.8329   -5.1688   55.3266 C.3     1  ZINC001181473921   -0.1500
     19 C19       -13.3318   -3.8671   54.6769 C.3     1  ZINC001181473921   -0.0800
     20 H20       -14.1746   -3.2954   54.2880 H       1  ZINC001181473921    0.0900
     21 C21       -12.3515   -4.1889   53.5471 C.3     1  ZINC001181473921   -0.6200
     22 S22       -12.1103   -2.7150   52.5176 S.o2    1  ZINC001181473921    2.6100
     23 N23       -11.1840   -1.7071   53.4494 N.am    1  ZINC001181473921   -1.2500
     24 O24       -11.2853   -3.0165   51.4006 O.2     1  ZINC001181473921   -0.9600
     25 O25       -13.3358   -2.0143   52.3552 O.2     1  ZINC001181473921   -0.9600
     26 C26       -12.6198   -3.0629   55.7869 C.3     1  ZINC001181473921   -0.1200
     27 H27       -12.6387    0.6407   60.1236 H       1  ZINC001181473921    0.0900
     28 H28       -12.1574    2.2823   60.6155 H       1  ZINC001181473921    0.1000
     29 H29       -11.2027    1.4022   59.3981 H       1  ZINC001181473921    0.0900
     30 H30       -11.0472    2.4668   62.5840 H       1  ZINC001181473921    0.1500
     31 H31        -8.6405    1.9364   64.6837 H       1  ZINC001181473921    0.4100
     32 H32        -8.7437   -0.7929   64.1570 H       1  ZINC001181473921    0.1500
     33 H33       -11.2002   -0.6623   59.3225 H       1  ZINC001181473921    0.1000
     34 H34        -9.8631   -1.7786   59.6888 H       1  ZINC001181473921    0.1100
     35 H35       -11.2521   -3.3403   60.6532 H       1  ZINC001181473921    0.1100
     36 H36       -12.3552   -2.1071   61.3096 H       1  ZINC001181473921    0.1000
     37 H37       -11.4475   -3.7947   58.2244 H       1  ZINC001181473921    0.4000
     38 H38       -12.4604   -5.6380   56.9517 H       1  ZINC001181473921    0.0700
     39 H39       -14.1803   -5.5429   57.4442 H       1  ZINC001181473921    0.0800
     40 H40       -13.3771   -6.0297   54.8377 H       1  ZINC001181473921    0.0900
     41 H41       -14.9188   -5.2289   55.2531 H       1  ZINC001181473921    0.0800
     42 H42       -11.3957   -4.4958   53.9719 H       1  ZINC001181473921    0.1400
     43 H43       -12.7539   -4.9970   52.9362 H       1  ZINC001181473921    0.1400
     44 H44       -10.3073   -1.9937   53.7496 H       1  ZINC001181473921    0.4100
     45 H45       -11.5180   -0.8301   53.6950 H       1  ZINC001181473921    0.4200
     46 H46       -12.8206   -1.9975   55.6747 H       1  ZINC001181473921    0.0800
     47 H47       -11.5468   -3.2539   55.7678 H       1  ZINC001181473921    0.0800
@<TRIPOS>BOND
     1     1     2    1
     2     1    27    1
     3     1    28    1
     4     1    29    1
     5     2     9    1
     6     2     3    2
     7     3     4    1
     8     3    30    1
     9     4     5    1
    10     4     6    2
    11     5    31    1
    12     6     7    1
    13     6    32    1
    14     7     8    2
    15     7     9   am
    16     9    10    1
    17    10    11    1
    18    10    33    1
    19    10    34    1
    20    11    12    1
    21    11    35    1
    22    11    36    1
    23    12    13    2
    24    12    14   am
    25    14    15    1
    26    14    37    1
    27    15    16    1
    28    15    26    1
    29    15    17    1
    30    17    18    1
    31    17    38    1
    32    17    39    1
    33    18    19    1
    34    18    40    1
    35    18    41    1
    36    19    20    1
    37    19    21    1
    38    19    26    1
    39    21    22    1
    40    21    42    1
    41    21    43    1
    42    22    23   am
    43    22    24    2
    44    22    25    2
    45    23    44    1
    46    23    45    1
    47    26    46    1
    48    26    47    1
@<TRIPOS>SUBSTRUCTURE
     1 ZINC001181473921        1 TEMP              0 ****  ****    0 ROOT


##########                                Name:    ZINC000864730443
##########                DOCK_Rotatable_Bonds:                  10
##########                         Heavy_Atoms:                  25
##########                    Molecular_Weight:             356.462
##########                DOCK_Rotatable_Bonds:                  10
##########                       Formal_Charge:           0.0299988
##########                     HBond_Acceptors:                   7
##########                        HBond_Donors:                   2
##########                         Heavy_Atoms:                  25
##########                          Grid_Score:          -33.756710
##########                     Grid_vdw_energy:          -32.559456
##########                      Grid_es_energy:           -1.197254
##########           Internal_energy_repulsive:           22.356842

@<TRIPOS>MOLECULE
ZINC000864730443
 57 58 1 0 0
SMALL
USER_CHARGES


@<TRIPOS>ATOM
      1 C1        -13.2315   -3.9951   53.0650 C.3     1  ZINC000864730443   -0.1800
      2 C2        -12.1421   -2.9841   53.4282 C.3     1  ZINC000864730443    0.1400
      3 C3        -11.1823   -2.8223   52.2478 C.3     1  ZINC000864730443   -0.1800
      4 C4        -12.7861   -1.6342   53.7506 C.3     1  ZINC000864730443   -0.1400
      5 O5        -11.4080   -3.4593   54.5874 O.3     1  ZINC000864730443   -0.3600
      6 C6        -11.9645   -3.2431   55.7942 C.2     1  ZINC000864730443    0.6500
      7 O7        -12.9301   -3.8932   56.1431 O.2     1  ZINC000864730443   -0.5700
      8 N8        -11.4507   -2.3059   56.6151 N.am    1  ZINC000864730443   -0.7100
      9 C9        -12.0552   -2.0720   57.9290 C.3     1  ZINC000864730443    0.1500
     10 C10       -10.9529   -1.8263   58.9611 C.3     1  ZINC000864730443   -0.1300
     11 C11       -10.1862   -0.5824   58.5927 C.2     1  ZINC000864730443    0.5300
     12 O12        -9.0163   -0.6608   58.2824 O.2     1  ZINC000864730443   -0.5300
     13 N13       -10.8004    0.6171   58.6080 N.am    1  ZINC000864730443   -0.7200
     14 C14       -10.0550    1.8264   58.2498 C.3     1  ZINC000864730443    0.1200
     15 C15       -10.0978    2.0213   56.7329 C.3     1  ZINC000864730443   -0.1300
     16 C16        -8.7236    2.4772   56.2384 C.3     1  ZINC000864730443    0.0800
     17 H17        -8.7143    2.5361   55.1500 H       1  ZINC000864730443    0.0800
     18 C18        -8.3589    3.8514   56.8544 C.3     1  ZINC000864730443   -0.1500
     19 C19        -6.8082    3.8045   56.7824 C.3     1  ZINC000864730443   -0.1600
     20 C20        -6.5143    2.3076   57.0199 C.3     1  ZINC000864730443    0.0500
     21 O21        -7.7040    1.5755   56.6975 O.3     1  ZINC000864730443   -0.3800
     22 C22       -11.5797   -1.6511   60.3477 C.3     1  ZINC000864730443   -0.1000
     23 C23       -10.4634   -1.4838   61.3832 C.3     1  ZINC000864730443   -0.1600
     24 C24        -9.5303   -2.6956   61.3164 C.3     1  ZINC000864730443    0.0600
     25 O25        -9.0059   -2.8190   59.9928 O.3     1  ZINC000864730443   -0.3700
     26 C26       -10.0009   -3.0250   58.9878 C.3     1  ZINC000864730443    0.0800
     27 H27       -12.7727   -4.9568   52.8352 H       1  ZINC000864730443    0.0900
     28 H28       -13.9153   -4.1104   53.9058 H       1  ZINC000864730443    0.0600
     29 H29       -13.7825   -3.6384   52.1948 H       1  ZINC000864730443    0.0700
     30 H30       -11.7334   -2.4656   51.3777 H       1  ZINC000864730443    0.0700
     31 H31       -10.4062   -2.1020   52.5067 H       1  ZINC000864730443    0.0600
     32 H32       -10.7234   -3.7840   52.0182 H       1  ZINC000864730443    0.0900
     33 H33       -13.4700   -1.7495   54.5916 H       1  ZINC000864730443    0.0700
     34 H34       -12.0101   -0.9139   54.0095 H       1  ZINC000864730443    0.0700
     35 H35       -13.3372   -1.2775   52.8805 H       1  ZINC000864730443    0.0800
     36 H36       -10.6807   -1.7861   56.3361 H       1  ZINC000864730443    0.4100
     37 H37       -12.7071   -1.1999   57.8789 H       1  ZINC000864730443    0.0900
     38 H38       -12.6384   -2.9453   58.2212 H       1  ZINC000864730443    0.0800
     39 H39       -11.7360    0.6798   58.8562 H       1  ZINC000864730443    0.4000
     40 H40       -10.5057    2.6894   58.7400 H       1  ZINC000864730443    0.0700
     41 H41        -9.0193    1.7243   58.5741 H       1  ZINC000864730443    0.0700
     42 H42       -10.3626    1.0792   56.2529 H       1  ZINC000864730443    0.0800
     43 H43       -10.8425    2.7775   56.4847 H       1  ZINC000864730443    0.0800
     44 H44        -8.7556    4.6692   56.2530 H       1  ZINC000864730443    0.0900
     45 H45        -8.7022    3.9227   57.8865 H       1  ZINC000864730443    0.0800
     46 H46        -6.4559    4.1179   55.7997 H       1  ZINC000864730443    0.0800
     47 H47        -6.3647    4.4163   57.5680 H       1  ZINC000864730443    0.0800
     48 H48        -5.6969    1.9846   56.3752 H       1  ZINC000864730443    0.0700
     49 H49        -6.2497    2.1440   58.0645 H       1  ZINC000864730443    0.0700
     50 H50       -12.2158   -0.7659   60.3510 H       1  ZINC000864730443    0.0800
     51 H51       -12.1753   -2.5306   60.5925 H       1  ZINC000864730443    0.0800
     52 H52        -9.8988   -0.5769   61.1667 H       1  ZINC000864730443    0.0900
     53 H53       -10.8988   -1.4137   62.3800 H       1  ZINC000864730443    0.0800
     54 H54        -8.7099   -2.5619   62.0214 H       1  ZINC000864730443    0.1000
     55 H55       -10.0866   -3.5972   61.5725 H       1  ZINC000864730443    0.0500
     56 H56       -10.5633   -3.9310   59.2136 H       1  ZINC000864730443    0.0700
     57 H57        -9.5194   -3.1286   58.0155 H       1  ZINC000864730443    0.1000
@<TRIPOS>BOND
     1     1     2    1
     2     1    27    1
     3     1    28    1
     4     1    29    1
     5     2     3    1
     6     2     4    1
     7     2     5    1
     8     3    30    1
     9     3    31    1
    10     3    32    1
    11     4    33    1
    12     4    34    1
    13     4    35    1
    14     5     6    1
    15     6     7    2
    16     6     8   am
    17     8     9    1
    18     8    36    1
    19     9    10    1
    20     9    37    1
    21     9    38    1
    22    10    26    1
    23    10    11    1
    24    10    22    1
    25    11    12    2
    26    11    13   am
    27    13    14    1
    28    13    39    1
    29    14    15    1
    30    14    40    1
    31    14    41    1
    32    15    16    1
    33    15    42    1
    34    15    43    1
    35    16    17    1
    36    16    21    1
    37    16    18    1
    38    18    19    1
    39    18    44    1
    40    18    45    1
    41    19    20    1
    42    19    46    1
    43    19    47    1
    44    20    21    1
    45    20    48    1
    46    20    49    1
    47    22    23    1
    48    22    50    1
    49    22    51    1
    50    23    24    1
    51    23    52    1
    52    23    53    1
    53    24    25    1
    54    24    54    1
    55    24    55    1
    56    25    26    1
    57    26    56    1
    58    26    57    1
@<TRIPOS>SUBSTRUCTURE
     1 ZINC000864730443        1 TEMP              0 ****  ****    0 ROOT


##########                                Name:    ZINC001401207732
##########                DOCK_Rotatable_Bonds:                   8
##########                         Heavy_Atoms:                  23
##########                    Molecular_Weight:             337.446
##########                DOCK_Rotatable_Bonds:                   8
##########                       Formal_Charge:          -0.0199995
##########                     HBond_Acceptors:                   8
##########                        HBond_Donors:                   1
##########                         Heavy_Atoms:                  23
##########                          Grid_Score:          -33.742619
##########                     Grid_vdw_energy:          -32.261864
##########                      Grid_es_energy:           -1.480755
##########           Internal_energy_repulsive:           15.471181

@<TRIPOS>MOLECULE
ZINC001401207732
 46 47 1 0 0
SMALL
USER_CHARGES


@<TRIPOS>ATOM
      1 C1        -14.5643    0.3696   59.3896 C.3     1  ZINC001401207732   -0.0900
      2 C2        -14.5538   -0.9866   60.0468 C.2     1  ZINC001401207732    0.1500
      3 C3        -13.9225   -1.2309   61.2225 C.2     1  ZINC001401207732   -0.3000
      4 C4        -13.1727   -0.2551   62.0207 C.2     1  ZINC001401207732    0.6100
      5 O5        -13.6973    0.2770   62.9811 O.2     1  ZINC001401207732   -0.5200
      6 N6        -11.9027    0.0522   61.6903 N.am    1  ZINC001401207732   -0.5900
      7 C7        -11.1539    1.0268   62.4876 C.3     1  ZINC001401207732    0.0700
      8 C8        -11.2711   -0.5883   60.5341 C.3     1  ZINC001401207732    0.1400
      9 H9        -12.0124   -1.1790   59.9960 H       1  ZINC001401207732    0.1100
     10 C10       -10.7017    0.4851   59.6043 C.3     1  ZINC001401207732   -0.1600
     11 C11       -10.1401   -1.5015   61.0115 C.3     1  ZINC001401207732    0.0500
     12 N12        -9.6291   -2.2821   59.8769 N.3     1  ZINC001401207732   -0.6800
     13 C13        -9.8844   -3.7163   60.0671 C.3     1  ZINC001401207732    0.1500
     14 C14       -10.6747   -4.2452   58.8980 C.2     1  ZINC001401207732    0.1800
     15 N15       -11.8262   -3.7915   58.4646 N.2     1  ZINC001401207732   -0.4800
     16 C16       -12.1465   -4.5643   57.4115 C.2     1  ZINC001401207732    0.1800
     17 C17       -13.3857   -4.4457   56.5622 C.3     1  ZINC001401207732   -0.0100
     18 C18       -12.9927   -4.0399   55.1404 C.3     1  ZINC001401207732   -0.1500
     19 C19       -14.1103   -5.7927   56.5263 C.3     1  ZINC001401207732   -0.1500
     20 N20       -11.1912   -5.4323   57.2609 N.2     1  ZINC001401207732   -0.3800
     21 O21       -10.3332   -5.2624   58.1013 O.3     1  ZINC001401207732    0.0900
     22 S22       -14.1584   -2.9325   61.6150 S.3     1  ZINC001401207732    0.1800
     23 C23       -15.0765   -3.1440   60.1886 C.2     1  ZINC001401207732    0.0100
     24 N24       -15.1536   -2.0308   59.5327 N.2     1  ZINC001401207732   -0.4800
     25 H25       -13.7084    0.4556   58.7202 H       1  ZINC001401207732    0.0800
     26 H26       -15.4853    0.4897   58.8192 H       1  ZINC001401207732    0.0800
     27 H27       -14.5069    1.1443   60.1543 H       1  ZINC001401207732    0.1000
     28 H28       -11.3913    2.0346   62.1464 H       1  ZINC001401207732    0.0600
     29 H29       -11.4279    0.9248   63.5377 H       1  ZINC001401207732    0.0800
     30 H30       -10.0852    0.8466   62.3718 H       1  ZINC001401207732    0.0900
     31 H31       -10.2318    0.0085   58.7440 H       1  ZINC001401207732    0.0700
     32 H32       -11.5074    1.1357   59.2641 H       1  ZINC001401207732    0.0700
     33 H33        -9.9604    1.0758   60.1423 H       1  ZINC001401207732    0.0600
     34 H34       -10.5188   -2.1786   61.7773 H       1  ZINC001401207732    0.0800
     35 H35        -9.3352   -0.8959   61.4279 H       1  ZINC001401207732    0.0500
     36 H36        -8.6464   -2.1061   59.7304 H       1  ZINC001401207732    0.3600
     37 H37       -10.4512   -3.8656   60.9861 H       1  ZINC001401207732    0.1100
     38 H38        -8.9355   -4.2484   60.1348 H       1  ZINC001401207732    0.0800
     39 H39       -14.0460   -3.6892   56.9865 H       1  ZINC001401207732    0.1000
     40 H40       -13.8891   -3.9541   54.5261 H       1  ZINC001401207732    0.0700
     41 H41       -12.4766   -3.0803   55.1659 H       1  ZINC001401207732    0.0600
     42 H42       -12.3326   -4.7964   54.7160 H       1  ZINC001401207732    0.0600
     43 H43       -14.3902   -6.0818   57.5393 H       1  ZINC001401207732    0.0600
     44 H44       -15.0066   -5.7069   55.9121 H       1  ZINC001401207732    0.0700
     45 H45       -13.4501   -6.5492   56.1020 H       1  ZINC001401207732    0.0600
     46 H46       -15.5246   -4.0757   59.8763 H       1  ZINC001401207732    0.2000
@<TRIPOS>BOND
     1     1     2    1
     2     1    25    1
     3     1    26    1
     4     1    27    1
     5     2    24    1
     6     2     3    2
     7     3     4    1
     8     3    22    1
     9     4     5    2
    10     4     6   am
    11     6     7    1
    12     6     8    1
    13     7    28    1
    14     7    29    1
    15     7    30    1
    16     8     9    1
    17     8    10    1
    18     8    11    1
    19    10    31    1
    20    10    32    1
    21    10    33    1
    22    11    12    1
    23    11    34    1
    24    11    35    1
    25    12    13    1
    26    12    36    1
    27    13    14    1
    28    13    37    1
    29    13    38    1
    30    14    21    1
    31    14    15    2
    32    15    16    1
    33    16    17    1
    34    16    20    2
    35    17    18    1
    36    17    19    1
    37    17    39    1
    38    18    40    1
    39    18    41    1
    40    18    42    1
    41    19    43    1
    42    19    44    1
    43    19    45    1
    44    20    21    1
    45    22    23    1
    46    23    24    2
    47    23    46    1
@<TRIPOS>SUBSTRUCTURE
     1 ZINC001401207732        1 TEMP              0 ****  ****    0 ROOT


##########                                Name:    ZINC001045438664
##########                DOCK_Rotatable_Bonds:                   6
##########                         Heavy_Atoms:                  26
##########                    Molecular_Weight:             352.439
##########                DOCK_Rotatable_Bonds:                   6
##########                       Formal_Charge:          -0.0099999
##########                     HBond_Acceptors:                   7
##########                        HBond_Donors:                   2
##########                         Heavy_Atoms:                  26
##########                          Grid_Score:          -33.741665
##########                     Grid_vdw_energy:          -33.482525
##########                      Grid_es_energy:           -0.259142
##########           Internal_energy_repulsive:            8.944467

@<TRIPOS>MOLECULE
ZINC001045438664
 50 53 1 0 0
SMALL
USER_CHARGES


@<TRIPOS>ATOM
      1 C1         -9.6050   -4.1152   59.5598 C.3     1  ZINC001045438664   -0.1100
      2 C2        -10.0423   -3.2007   58.4447 C.ar    1  ZINC001045438664    0.2100
      3 C3        -10.7042   -3.7078   57.3442 C.ar    1  ZINC001045438664   -0.3000
      4 C4        -11.0902   -2.8214   56.3362 C.ar    1  ZINC001045438664    0.4500
      5 N5        -11.7573   -3.2809   55.2124 N.pl3   1  ZINC001045438664   -0.7100
      6 C6        -13.0156   -2.6541   54.8001 C.3     1  ZINC001045438664    0.1500
      7 H7        -13.1766   -1.7459   55.3809 H       1  ZINC001045438664    0.0900
      8 C8        -14.1725   -3.6257   55.0418 C.3     1  ZINC001045438664   -0.1300
      9 C9        -15.4867   -2.9711   54.6112 C.3     1  ZINC001045438664   -0.1200
     10 C10       -15.4180   -2.6197   53.1237 C.3     1  ZINC001045438664   -0.1200
     11 C11       -14.2611   -1.6481   52.8820 C.3     1  ZINC001045438664   -0.1300
     12 C12       -12.9470   -2.3028   53.3126 C.3     1  ZINC001045438664    0.1400
     13 H13       -12.7861   -3.2109   52.7317 H       1  ZINC001045438664    0.1000
     14 N14       -11.8392   -1.3725   53.0812 N.am    1  ZINC001045438664   -0.7200
     15 C15       -10.6802   -1.8211   52.5598 C.2     1  ZINC001045438664    0.5700
     16 O16       -10.5535   -2.9979   52.2829 O.2     1  ZINC001045438664   -0.5200
     17 C17        -9.5629   -0.8820   52.3247 C.ar    1  ZINC001045438664   -0.2500
     18 C18        -8.3829   -1.3084   51.7047 C.ar    1  ZINC001045438664    0.1900
     19 N19        -7.4096   -0.4351   51.5138 N.ar    1  ZINC001045438664   -0.5200
     20 C20        -7.5390    0.8198   51.8978 C.ar    1  ZINC001045438664    0.3200
     21 N21        -8.6328    1.2634   52.4857 N.ar    1  ZINC001045438664   -0.5200
     22 C22        -9.6576    0.4599   52.7105 C.ar    1  ZINC001045438664    0.2100
     23 N23       -10.8075   -1.5293   56.4728 N.ar    1  ZINC001045438664   -0.5800
     24 C24       -10.1735   -1.0889   57.5407 C.ar    1  ZINC001045438664    0.4000
     25 C25        -9.8718    0.3829   57.6587 C.3     1  ZINC001045438664   -0.1100
     26 C26        -9.5380    1.1409   56.3722 C.3     1  ZINC001045438664   -0.1500
     27 C27       -10.8855    1.3617   57.0624 C.3     1  ZINC001045438664   -0.1500
     28 N28        -9.8007   -1.8988   58.5110 N.ar    1  ZINC001045438664   -0.5600
     29 H29       -10.4015   -4.1923   60.2999 H       1  ZINC001045438664    0.0800
     30 H30        -9.3881   -5.1038   59.1552 H       1  ZINC001045438664    0.0800
     31 H31        -8.7091   -3.7109   60.0311 H       1  ZINC001045438664    0.0800
     32 H32       -10.9180   -4.7634   57.2647 H       1  ZINC001045438664    0.1400
     33 H33       -11.3913   -4.0178   54.6986 H       1  ZINC001045438664    0.4100
     34 H34       -14.0117   -4.5339   54.4610 H       1  ZINC001045438664    0.0700
     35 H35       -14.2214   -3.8760   56.1016 H       1  ZINC001045438664    0.0700
     36 H36       -16.3109   -3.6633   54.7833 H       1  ZINC001045438664    0.0700
     37 H37       -15.6475   -2.0628   55.1920 H       1  ZINC001045438664    0.0700
     38 H38       -15.2571   -3.5279   52.5429 H       1  ZINC001045438664    0.0700
     39 H39       -16.3543   -2.1533   52.8169 H       1  ZINC001045438664    0.0700
     40 H40       -14.2122   -1.3978   51.8222 H       1  ZINC001045438664    0.0800
     41 H41       -14.4220   -0.7399   53.4628 H       1  ZINC001045438664    0.0700
     42 H42       -11.9399   -0.4336   53.3033 H       1  ZINC001045438664    0.4000
     43 H43        -8.2694   -2.3346   51.3877 H       1  ZINC001045438664    0.1700
     44 H44        -6.7229    1.5059   51.7258 H       1  ZINC001045438664    0.2100
     45 H45       -10.5502    0.8307   53.1924 H       1  ZINC001045438664    0.1800
     46 H46        -9.3560    0.6856   58.5699 H       1  ZINC001045438664    0.1300
     47 H47        -8.8021    1.9424   56.4370 H       1  ZINC001045438664    0.1000
     48 H48        -9.5364    0.5751   55.4406 H       1  ZINC001045438664    0.1100
     49 H49       -11.7704    0.9411   56.5848 H       1  ZINC001045438664    0.1000
     50 H50       -11.0361    2.3084   57.5812 H       1  ZINC001045438664    0.1000
@<TRIPOS>BOND
     1     1     2    1
     2     1    29    1
     3     1    30    1
     4     1    31    1
     5     2    28   ar
     6     2     3   ar
     7     3     4   ar
     8     3    32    1
     9     4     5    1
    10     4    23   ar
    11     5     6    1
    12     5    33    1
    13     6     7    1
    14     6    12    1
    15     6     8    1
    16     8     9    1
    17     8    34    1
    18     8    35    1
    19     9    10    1
    20     9    36    1
    21     9    37    1
    22    10    11    1
    23    10    38    1
    24    10    39    1
    25    11    12    1
    26    11    40    1
    27    11    41    1
    28    12    13    1
    29    12    14    1
    30    14    15   am
    31    14    42    1
    32    15    16    2
    33    15    17    1
    34    17    22   ar
    35    17    18   ar
    36    18    19   ar
    37    18    43    1
    38    19    20   ar
    39    20    21   ar
    40    20    44    1
    41    21    22   ar
    42    22    45    1
    43    23    24   ar
    44    24    25    1
    45    24    28   ar
    46    25    27    1
    47    25    26    1
    48    25    46    1
    49    26    27    1
    50    26    47    1
    51    26    48    1
    52    27    49    1
    53    27    50    1
@<TRIPOS>SUBSTRUCTURE
     1 ZINC001045438664        1 TEMP              0 ****  ****    0 ROOT


##########                                Name:    ZINC000751548479
##########                DOCK_Rotatable_Bonds:                   9
##########                         Heavy_Atoms:                  27
##########                    Molecular_Weight:             389.407
##########                DOCK_Rotatable_Bonds:                   9
##########                       Formal_Charge:           0.0199995
##########                     HBond_Acceptors:                   9
##########                        HBond_Donors:                   2
##########                         Heavy_Atoms:                  27
##########                          Grid_Score:          -33.740582
##########                     Grid_vdw_energy:          -32.820469
##########                      Grid_es_energy:           -0.920113
##########           Internal_energy_repulsive:           13.403789

@<TRIPOS>MOLECULE
ZINC000751548479
 43 44 1 0 0
SMALL
USER_CHARGES


@<TRIPOS>ATOM
      1 C1         -5.5104    3.4454   56.1452 C.3     1  ZINC000751548479   -0.1600
      2 C2         -5.1042    3.0632   54.7204 C.3     1  ZINC000751548479    0.0800
      3 O3         -4.6526    4.2472   54.0118 O.3     1  ZINC000751548479   -0.3600
      4 C4         -4.1241    4.0623   52.7871 C.2     1  ZINC000751548479    0.6500
      5 O5         -3.9252    5.0160   52.0610 O.2     1  ZINC000751548479   -0.5400
      6 N6         -3.8159    2.8194   52.3669 N.am    1  ZINC000751548479   -0.6500
      7 C7         -3.2679    2.6276   51.0969 C.ar    1  ZINC000751548479    0.2000
      8 C8         -1.9775    3.0578   50.8241 C.ar    1  ZINC000751548479   -0.1000
      9 C9         -1.4342    2.8689   49.5692 C.ar    1  ZINC000751548479   -0.1000
     10 C10        -2.1745    2.2469   48.5696 C.ar    1  ZINC000751548479    0.1300
     11 N11        -1.6151    2.0603   47.3005 N.am    1  ZINC000751548479   -1.0500
     12 S12        -0.6139    0.7718   47.0182 S.o2    1  ZINC000751548479    2.6800
     13 O13         0.5529    0.9918   47.7987 O.2     1  ZINC000751548479   -0.9500
     14 O14        -1.4179   -0.3940   47.1338 O.2     1  ZINC000751548479   -0.9400
     15 C15        -0.1093    0.8631   45.3323 C.2     1  ZINC000751548479   -0.7500
     16 C16        -0.7644    0.1767   44.4063 C.2     1  ZINC000751548479    0.0700
     17 C17        -0.3424    0.2547   42.9921 C.ar    1  ZINC000751548479   -0.1100
     18 C18        -0.9392   -0.5693   42.0368 C.ar    1  ZINC000751548479   -0.0600
     19 C19        -0.5419   -0.4923   40.7182 C.ar    1  ZINC000751548479   -0.1600
     20 C20         0.4482    0.4010   40.3414 C.ar    1  ZINC000751548479    0.1200
     21 F21         0.8339    0.4722   39.0486 F       1  ZINC000751548479   -0.1300
     22 C22         1.0437    1.2217   41.2858 C.ar    1  ZINC000751548479   -0.1600
     23 C23         0.6502    1.1565   42.6061 C.ar    1  ZINC000751548479   -0.0500
     24 C24        -3.4635    1.8112   48.8271 C.ar    1  ZINC000751548479   -0.0600
     25 C25        -4.0185    1.9941   50.0954 C.ar    1  ZINC000751548479   -0.0300
     26 C26        -5.3506    1.5459   50.3694 C.1     1  ZINC000751548479    0.2500
     27 N27        -6.4074    1.1903   50.5868 N.1     1  ZINC000751548479   -0.4000
     28 H28        -6.3175    4.1771   56.1089 H       1  ZINC000751548479    0.0700
     29 H29        -5.8494    2.5565   56.6772 H       1  ZINC000751548479    0.0900
     30 H30        -4.6536    3.8749   56.6644 H       1  ZINC000751548479    0.0700
     31 H31        -4.2971    2.3314   54.7567 H       1  ZINC000751548479    0.0800
     32 H32        -5.9609    2.6336   54.2012 H       1  ZINC000751548479    0.0800
     33 H33        -3.9748    2.0581   52.9466 H       1  ZINC000751548479    0.4200
     34 H34        -1.3967    3.5421   51.5953 H       1  ZINC000751548479    0.1600
     35 H35        -0.4292    3.2063   49.3625 H       1  ZINC000751548479    0.1700
     36 H36        -1.8138    2.6858   46.5862 H       1  ZINC000751548479    0.4300
     37 H37         0.7334    1.4781   45.0535 H       1  ZINC000751548479    0.1700
     38 H38        -1.6064   -0.4393   44.6854 H       1  ZINC000751548479    0.1500
     39 H39        -1.7104   -1.2663   42.3297 H       1  ZINC000751548479    0.1400
     40 H40        -1.0031   -1.1295   39.9782 H       1  ZINC000751548479    0.1400
     41 H41         1.8147    1.9164   40.9868 H       1  ZINC000751548479    0.1400
     42 H42         1.1147    1.7968   43.3414 H       1  ZINC000751548479    0.1400
     43 H43        -4.0371    1.3283   48.0498 H       1  ZINC000751548479    0.1500
@<TRIPOS>BOND
     1     1     2    1
     2     1    28    1
     3     1    29    1
     4     1    30    1
     5     2     3    1
     6     2    31    1
     7     2    32    1
     8     3     4    1
     9     4     5    2
    10     4     6   am
    11     6     7    1
    12     6    33    1
    13     7    25   ar
    14     7     8   ar
    15     8     9   ar
    16     8    34    1
    17     9    10   ar
    18     9    35    1
    19    10    11    1
    20    10    24   ar
    21    11    12   am
    22    11    36    1
    23    12    13    2
    24    12    14    2
    25    12    15    1
    26    15    16    2
    27    15    37    1
    28    16    17    1
    29    16    38    1
    30    17    23   ar
    31    17    18   ar
    32    18    19   ar
    33    18    39    1
    34    19    20   ar
    35    19    40    1
    36    20    21    1
    37    20    22   ar
    38    22    23   ar
    39    22    41    1
    40    23    42    1
    41    24    25   ar
    42    24    43    1
    43    25    26    1
    44    26    27    3
@<TRIPOS>SUBSTRUCTURE
     1 ZINC000751548479        1 TEMP              0 ****  ****    0 ROOT


##########                                Name:    ZINC000558052810
##########                DOCK_Rotatable_Bonds:                   9
##########                         Heavy_Atoms:                  30
##########                    Molecular_Weight:             424.524
##########                DOCK_Rotatable_Bonds:                   9
##########                       Formal_Charge:          -0.0200002
##########                     HBond_Acceptors:                   8
##########                        HBond_Donors:                   1
##########                         Heavy_Atoms:                  30
##########                          Grid_Score:          -33.727615
##########                     Grid_vdw_energy:          -31.889036
##########                      Grid_es_energy:           -1.838581
##########           Internal_energy_repulsive:           16.915611

@<TRIPOS>MOLECULE
ZINC000558052810
 54 56 1 0 0
SMALL
USER_CHARGES


@<TRIPOS>ATOM
      1 C1        -12.0233    4.3278   63.9630 C.3     1  ZINC000558052810   -0.1700
      2 C2        -12.9181    3.1517   63.5666 C.3     1  ZINC000558052810    0.1100
      3 N3        -12.1063    2.1158   62.9231 N.am    1  ZINC000558052810   -0.6100
      4 C4        -11.0105    2.4947   62.0276 C.3     1  ZINC000558052810    0.0700
      5 C5        -12.3675    0.8141   63.1551 C.2     1  ZINC000558052810    0.5600
      6 O6        -13.2765    0.4996   63.8983 O.2     1  ZINC000558052810   -0.5300
      7 C7        -11.5482   -0.2315   62.5057 C.ar    1  ZINC000558052810   -0.1100
      8 C8        -10.1852   -0.3299   62.7894 C.ar    1  ZINC000558052810   -0.1100
      9 C9         -9.4225   -1.3068   62.1818 C.ar    1  ZINC000558052810   -0.1000
     10 C10       -10.0037   -2.1896   61.2913 C.ar    1  ZINC000558052810   -0.1300
     11 C11       -11.3602   -2.0996   61.0016 C.ar    1  ZINC000558052810    0.1400
     12 N12       -11.9436   -2.9953   60.0991 N.am    1  ZINC000558052810   -0.6600
     13 C13       -12.5431   -2.5336   58.9839 C.2     1  ZINC000558052810    0.5600
     14 O14       -12.5769   -1.3382   58.7620 O.2     1  ZINC000558052810   -0.4800
     15 C15       -13.1577   -3.4770   58.0332 C.ar    1  ZINC000558052810   -0.1900
     16 C16       -14.3355   -4.1566   58.3642 C.ar    1  ZINC000558052810   -0.0200
     17 C17       -14.8725   -5.0318   57.4367 C.ar    1  ZINC000558052810   -0.1900
     18 C18       -14.2379   -5.2100   56.2202 C.ar    1  ZINC000558052810    0.1500
     19 N19       -13.1284   -4.5611   55.9263 N.ar    1  ZINC000558052810   -0.4900
     20 C20       -12.5745   -3.7069   56.7742 C.ar    1  ZINC000558052810    0.1600
     21 S21       -11.0909   -2.8672   56.3288 S.3     1  ZINC000558052810    0.0600
     22 C22       -11.7767   -1.5341   55.3145 C.3     1  ZINC000558052810   -0.0700
     23 C23       -10.9730   -1.4033   54.0464 C.2     1  ZINC000558052810   -0.2000
     24 C24       -11.0173   -2.1917   52.9460 C.2     1  ZINC000558052810   -0.0100
     25 C25       -11.8939   -3.3994   52.7359 C.3     1  ZINC000558052810   -0.0800
     26 O26       -10.1275   -1.6857   52.0805 O.3     1  ZINC000558052810    0.1000
     27 N27        -9.5738   -0.7100   52.5319 N.2     1  ZINC000558052810   -0.3600
     28 C28       -10.0030   -0.4256   53.7274 C.2     1  ZINC000558052810    0.0300
     29 C29        -9.5488    0.7145   54.6021 C.3     1  ZINC000558052810   -0.0800
     30 C30       -12.1362   -1.1264   61.6116 C.ar    1  ZINC000558052810   -0.0700
     31 H31       -11.2568    3.9834   64.6572 H       1  ZINC000558052810    0.0600
     32 H32       -11.5485    4.7394   63.0724 H       1  ZINC000558052810    0.0600
     33 H33       -12.6274    5.0985   64.4418 H       1  ZINC000558052810    0.0700
     34 H34       -13.3930    2.7402   64.4573 H       1  ZINC000558052810    0.0800
     35 H35       -13.6846    3.4961   62.8724 H       1  ZINC000558052810    0.0800
     36 H36       -10.1110    2.6830   62.6137 H       1  ZINC000558052810    0.0600
     37 H37       -10.8218    1.6858   61.3219 H       1  ZINC000558052810    0.0800
     38 H38       -11.2836    3.3974   61.4811 H       1  ZINC000558052810    0.0700
     39 H39        -9.7271    0.3585   63.4841 H       1  ZINC000558052810    0.1400
     40 H40        -8.3679   -1.3813   62.4026 H       1  ZINC000558052810    0.1400
     41 H41        -9.4017   -2.9517   60.8186 H       1  ZINC000558052810    0.1300
     42 H42       -11.9167   -3.9486   60.2761 H       1  ZINC000558052810    0.4100
     43 H43       -14.8134   -4.0019   59.3204 H       1  ZINC000558052810    0.1400
     44 H44       -15.7802   -5.5722   57.6609 H       1  ZINC000558052810    0.1500
     45 H45       -14.6590   -5.8937   55.4981 H       1  ZINC000558052810    0.1700
     46 H46       -12.8129   -1.7630   55.0660 H       1  ZINC000558052810    0.1000
     47 H47       -11.7347   -0.5968   55.8695 H       1  ZINC000558052810    0.1000
     48 H48       -12.8365   -3.0901   52.2845 H       1  ZINC000558052810    0.0900
     49 H49       -11.3889   -4.1045   52.0757 H       1  ZINC000558052810    0.0900
     50 H50       -12.0902   -3.8772   53.6958 H       1  ZINC000558052810    0.0900
     51 H51       -10.1678    1.5904   54.4081 H       1  ZINC000558052810    0.0800
     52 H52        -9.6424    0.4283   55.6497 H       1  ZINC000558052810    0.0800
     53 H53        -8.5075    0.9494   54.3813 H       1  ZINC000558052810    0.0800
     54 H54       -13.1904   -1.0551   61.3881 H       1  ZINC000558052810    0.1500
@<TRIPOS>BOND
     1     1     2    1
     2     1    31    1
     3     1    32    1
     4     1    33    1
     5     2     3    1
     6     2    34    1
     7     2    35    1
     8     3     4    1
     9     3     5   am
    10     4    36    1
    11     4    37    1
    12     4    38    1
    13     5     6    2
    14     5     7    1
    15     7    30   ar
    16     7     8   ar
    17     8     9   ar
    18     8    39    1
    19     9    10   ar
    20     9    40    1
    21    10    11   ar
    22    10    41    1
    23    11    12    1
    24    11    30   ar
    25    12    13   am
    26    12    42    1
    27    13    14    2
    28    13    15    1
    29    15    20   ar
    30    15    16   ar
    31    16    17   ar
    32    16    43    1
    33    17    18   ar
    34    17    44    1
    35    18    19   ar
    36    18    45    1
    37    19    20   ar
    38    20    21    1
    39    21    22    1
    40    22    23    1
    41    22    46    1
    42    22    47    1
    43    23    28    1
    44    23    24    2
    45    24    25    1
    46    24    26    1
    47    25    48    1
    48    25    49    1
    49    25    50    1
    50    26    27    1
    51    27    28    2
    52    28    29    1
    53    29    51    1
    54    29    52    1
    55    29    53    1
    56    30    54    1
@<TRIPOS>SUBSTRUCTURE
     1 ZINC000558052810        1 TEMP              0 ****  ****    0 ROOT


##########                                Name:    ZINC000020646552
##########                DOCK_Rotatable_Bonds:                   5
##########                         Heavy_Atoms:                  29
##########                    Molecular_Weight:             412.556
##########                DOCK_Rotatable_Bonds:                   5
##########                       Formal_Charge:          -0.0200012
##########                     HBond_Acceptors:                   7
##########                        HBond_Donors:                   0
##########                         Heavy_Atoms:                  29
##########                          Grid_Score:          -33.711723
##########                     Grid_vdw_energy:          -34.341972
##########                      Grid_es_energy:            0.630248
##########           Internal_energy_repulsive:           12.009640

@<TRIPOS>MOLECULE
ZINC000020646552
 57 60 1 0 0
SMALL
USER_CHARGES


@<TRIPOS>ATOM
      1 C1         -8.2993    3.2765   57.4464 C.3     1  ZINC000020646552    0.0200
      2 N2         -6.9544    3.7953   57.1631 N.3     1  ZINC000020646552   -0.5400
      3 C3         -6.8931    4.3956   55.8238 C.3     1  ZINC000020646552    0.0400
      4 C4         -5.5359    5.0821   55.6370 C.3     1  ZINC000020646552    0.1200
      5 N5         -4.4747    4.1070   55.9305 N.am    1  ZINC000020646552   -0.6100
      6 C6         -3.4652    3.9006   55.0617 C.2     1  ZINC000020646552    0.5300
      7 O7         -2.5994    3.0914   55.3193 O.2     1  ZINC000020646552   -0.5200
      8 C8         -3.4125    4.6752   53.7701 C.3     1  ZINC000020646552   -0.1500
      9 S9         -2.1401    3.9684   52.6942 S.3     1  ZINC000020646552    0.0500
     10 C10        -3.1500    3.0076   51.6164 C.ar    1  ZINC000020646552    0.1500
     11 N11        -4.4003    2.7086   51.9519 N.ar    1  ZINC000020646552   -0.5200
     12 C12        -5.1604    1.9855   51.1414 C.ar    1  ZINC000020646552    0.3800
     13 C13        -6.5529    1.6716   51.5445 C.ar    1  ZINC000020646552   -0.0500
     14 C14        -7.0804    0.4034   51.3085 C.ar    1  ZINC000020646552   -0.0700
     15 C15        -8.3765    0.1167   51.6862 C.ar    1  ZINC000020646552   -0.1300
     16 C16        -9.1517    1.0854   52.2979 C.ar    1  ZINC000020646552   -0.1000
     17 C17        -8.6335    2.3460   52.5342 C.ar    1  ZINC000020646552   -0.1300
     18 C18        -7.3368    2.6421   52.1660 C.ar    1  ZINC000020646552   -0.0700
     19 N19        -4.7074    1.5365   49.9800 N.ar    1  ZINC000020646552   -0.5200
     20 C20        -3.4681    1.7976   49.5834 C.ar    1  ZINC000020646552    0.2100
     21 C21        -2.6490    2.5525   50.3912 C.ar    1  ZINC000020646552   -0.2100
     22 C22        -1.2394    2.8931   49.9933 C.3     1  ZINC000020646552    0.1100
     23 O23        -0.8107    2.0463   48.9263 O.3     1  ZINC000020646552   -0.3600
     24 C24        -1.7278    2.0154   47.8269 C.3     1  ZINC000020646552    0.1100
     25 C25        -2.0994    3.4449   47.4276 C.3     1  ZINC000020646552   -0.1800
     26 C26        -1.0809    1.3017   46.6382 C.3     1  ZINC000020646552   -0.1400
     27 C27        -2.9875    1.2649   48.2593 C.3     1  ZINC000020646552   -0.0900
     28 C28        -4.5442    3.3633   57.1976 C.3     1  ZINC000020646552    0.1100
     29 C29        -5.9404    2.7445   57.3229 C.3     1  ZINC000020646552    0.0400
     30 H30        -8.3377    2.9068   58.4710 H       1  ZINC000020646552    0.0700
     31 H31        -9.0306    4.0750   57.3207 H       1  ZINC000020646552    0.0700
     32 H32        -8.5274    2.4630   56.7578 H       1  ZINC000020646552    0.0300
     33 H33        -7.0137    3.6172   55.0703 H       1  ZINC000020646552    0.0400
     34 H34        -7.6905    5.1312   55.7180 H       1  ZINC000020646552    0.0900
     35 H35        -5.4397    5.4294   54.6083 H       1  ZINC000020646552    0.1000
     36 H36        -5.4558    5.9273   56.3206 H       1  ZINC000020646552    0.0800
     37 H37        -4.3808    4.6192   53.2730 H       1  ZINC000020646552    0.1300
     38 H38        -3.1721    5.7173   53.9810 H       1  ZINC000020646552    0.1200
     39 H39        -6.4762   -0.3536   50.8306 H       1  ZINC000020646552    0.1400
     40 H40        -8.7865   -0.8656   51.5034 H       1  ZINC000020646552    0.1300
     41 H41       -10.1654    0.8567   52.5918 H       1  ZINC000020646552    0.1300
     42 H42        -9.2434    3.0986   53.0119 H       1  ZINC000020646552    0.1300
     43 H43        -6.9332    3.6266   52.3510 H       1  ZINC000020646552    0.1300
     44 H44        -1.1969    3.9328   49.6688 H       1  ZINC000020646552    0.0800
     45 H45        -0.5793    2.7571   50.8500 H       1  ZINC000020646552    0.1100
     46 H46        -1.1998    3.9854   47.1336 H       1  ZINC000020646552    0.0700
     47 H47        -2.7975    3.4186   46.5908 H       1  ZINC000020646552    0.0700
     48 H48        -2.5658    3.9489   48.2742 H       1  ZINC000020646552    0.0600
     49 H49        -0.8230    0.2817   46.9232 H       1  ZINC000020646552    0.0700
     50 H50        -1.7809    1.2796   45.8030 H       1  ZINC000020646552    0.0800
     51 H51        -0.1779    1.8355   46.3415 H       1  ZINC000020646552    0.0700
     52 H52        -2.7600    0.2040   48.3628 H       1  ZINC000020646552    0.1000
     53 H53        -3.7647    1.3968   47.5065 H       1  ZINC000020646552    0.1000
     54 H54        -3.7922    2.5742   57.2006 H       1  ZINC000020646552    0.0900
     55 H55        -4.3687    4.0432   58.0313 H       1  ZINC000020646552    0.0800
     56 H56        -6.0468    2.2826   58.3045 H       1  ZINC000020646552    0.0900
     57 H57        -6.0742    1.9890   56.5486 H       1  ZINC000020646552    0.0400
@<TRIPOS>BOND
     1     1     2    1
     2     1    30    1
     3     1    31    1
     4     1    32    1
     5     2    29    1
     6     2     3    1
     7     3     4    1
     8     3    33    1
     9     3    34    1
    10     4     5    1
    11     4    35    1
    12     4    36    1
    13     5     6   am
    14     5    28    1
    15     6     7    2
    16     6     8    1
    17     8     9    1
    18     8    37    1
    19     8    38    1
    20     9    10    1
    21    10    21   ar
    22    10    11   ar
    23    11    12   ar
    24    12    13    1
    25    12    19   ar
    26    13    18   ar
    27    13    14   ar
    28    14    15   ar
    29    14    39    1
    30    15    16   ar
    31    15    40    1
    32    16    17   ar
    33    16    41    1
    34    17    18   ar
    35    17    42    1
    36    18    43    1
    37    19    20   ar
    38    20    27    1
    39    20    21   ar
    40    21    22    1
    41    22    23    1
    42    22    44    1
    43    22    45    1
    44    23    24    1
    45    24    25    1
    46    24    26    1
    47    24    27    1
    48    25    46    1
    49    25    47    1
    50    25    48    1
    51    26    49    1
    52    26    50    1
    53    26    51    1
    54    27    52    1
    55    27    53    1
    56    28    29    1
    57    28    54    1
    58    28    55    1
    59    29    56    1
    60    29    57    1
@<TRIPOS>SUBSTRUCTURE
     1 ZINC000020646552        1 TEMP              0 ****  ****    0 ROOT


##########                                Name:    ZINC001492779707
##########                DOCK_Rotatable_Bonds:                   8
##########                         Heavy_Atoms:                  27
##########                    Molecular_Weight:             374.483
##########                DOCK_Rotatable_Bonds:                   8
##########                       Formal_Charge:           0.0199998
##########                     HBond_Acceptors:                   7
##########                        HBond_Donors:                   0
##########                         Heavy_Atoms:                  27
##########                          Grid_Score:          -33.651321
##########                     Grid_vdw_energy:          -33.405621
##########                      Grid_es_energy:           -0.245701
##########           Internal_energy_repulsive:           11.008453

@<TRIPOS>MOLECULE
ZINC001492779707
 57 59 1 0 0
SMALL
USER_CHARGES


@<TRIPOS>ATOM
      1 C1        -14.7241   -2.9447   57.2575 C.3     1  ZINC001492779707   -0.0700
      2 C2        -13.3152   -3.2484   57.6974 C.2     1  ZINC001492779707    0.1800
      3 N3        -12.4611   -4.0137   57.0788 N.2     1  ZINC001492779707   -0.2900
      4 N4        -11.3530   -4.0529   57.7290 N.2     1  ZINC001492779707   -0.3100
      5 C5        -11.4416   -3.3086   58.8060 C.2     1  ZINC001492779707    0.3400
      6 N6        -10.4485   -3.1058   59.7511 N.3     1  ZINC001492779707   -0.4600
      7 C7         -9.4537   -4.1860   59.7096 C.3     1  ZINC001492779707    0.0300
      8 C8         -9.8102   -1.7951   59.5711 C.3     1  ZINC001492779707    0.1100
      9 C9         -9.8442   -1.0367   60.8729 C.ar    1  ZINC001492779707   -0.0400
     10 C10        -9.2604   -1.5781   62.0031 C.ar    1  ZINC001492779707   -0.1300
     11 C11        -9.2900   -0.8846   63.1992 C.ar    1  ZINC001492779707   -0.0800
     12 C12        -9.9032    0.3510   63.2674 C.ar    1  ZINC001492779707   -0.2100
     13 C13       -10.4899    0.8965   62.1345 C.ar    1  ZINC001492779707    0.1300
     14 O14       -11.0936    2.1125   62.1990 O.3     1  ZINC001492779707   -0.3100
     15 C15       -12.5211    2.1255   62.2631 C.3     1  ZINC001492779707    0.0800
     16 C16       -12.9661    2.0866   63.7265 C.3     1  ZINC001492779707   -0.1500
     17 C17       -13.0497    3.4004   61.6030 C.3     1  ZINC001492779707   -0.1800
     18 C18       -10.4540    0.2016   60.9347 C.ar    1  ZINC001492779707   -0.1400
     19 N19       -12.6941   -2.7674   58.8166 N.pl3   1  ZINC001492779707   -0.4600
     20 C20       -13.2596   -1.8657   59.8234 C.3     1  ZINC001492779707    0.1200
     21 C21       -13.9926   -2.6849   60.8876 C.3     1  ZINC001492779707   -0.1200
     22 C22       -14.5148   -1.7502   61.9805 C.3     1  ZINC001492779707    0.0600
     23 H23       -13.7548   -1.0055   62.2168 H       1  ZINC001492779707    0.0800
     24 C24       -15.7844   -1.0482   61.4899 C.3     1  ZINC001492779707    0.0300
     25 O25       -16.3280   -0.2629   62.5553 O.3     1  ZINC001492779707   -0.3800
     26 C26       -16.6352   -1.0230   63.7278 C.3     1  ZINC001492779707    0.0200
     27 C27       -15.3657   -1.7249   64.2185 C.3     1  ZINC001492779707    0.0300
     28 O28       -14.8206   -2.5101   63.1536 O.3     1  ZINC001492779707   -0.3800
     29 H29       -14.7223   -2.0642   56.6150 H       1  ZINC001492779707    0.0900
     30 H30       -15.1242   -3.7958   56.7064 H       1  ZINC001492779707    0.1000
     31 H31       -15.3450   -2.7543   58.1330 H       1  ZINC001492779707    0.0800
     32 H32        -8.9175   -4.1498   58.7613 H       1  ZINC001492779707    0.0500
     33 H33        -8.7480   -4.0619   60.5310 H       1  ZINC001492779707    0.0900
     34 H34        -9.9576   -5.1478   59.8057 H       1  ZINC001492779707    0.0700
     35 H35        -8.7752   -1.9348   59.2589 H       1  ZINC001492779707    0.0700
     36 H36       -10.3468   -1.2314   58.8080 H       1  ZINC001492779707    0.0900
     37 H37        -8.7807   -2.5443   61.9518 H       1  ZINC001492779707    0.1200
     38 H38        -8.8335   -1.3099   64.0807 H       1  ZINC001492779707    0.1300
     39 H39        -9.9264    0.8921   64.2019 H       1  ZINC001492779707    0.1300
     40 H40       -12.9162    1.2547   61.7400 H       1  ZINC001492779707    0.0700
     41 H41       -12.5709    2.9574   64.2497 H       1  ZINC001492779707    0.0700
     42 H42       -14.0549    2.0965   63.7755 H       1  ZINC001492779707    0.0800
     43 H43       -12.5893    1.1784   64.1969 H       1  ZINC001492779707    0.0700
     44 H44       -12.7327    3.4281   60.5605 H       1  ZINC001492779707    0.0600
     45 H45       -14.1387    3.4102   61.6520 H       1  ZINC001492779707    0.0700
     46 H46       -12.6546    4.2712   62.1261 H       1  ZINC001492779707    0.0700
     47 H47       -10.9099    0.6241   60.0515 H       1  ZINC001492779707    0.1300
     48 H48       -12.4574   -1.2957   60.2921 H       1  ZINC001492779707    0.1000
     49 H49       -13.9602   -1.1812   59.3453 H       1  ZINC001492779707    0.1000
     50 H50       -14.8298   -3.2107   60.4286 H       1  ZINC001492779707    0.0900
     51 H51       -13.3054   -3.4086   61.3261 H       1  ZINC001492779707    0.0800
     52 H52       -15.5403   -0.4006   60.6478 H       1  ZINC001492779707    0.1100
     53 H53       -16.5154   -1.7939   61.1774 H       1  ZINC001492779707    0.0600
     54 H54       -17.0073   -0.3570   64.5064 H       1  ZINC001492779707    0.1100
     55 H55       -17.3947   -1.7677   63.4905 H       1  ZINC001492779707    0.0600
     56 H56       -14.6346   -0.9793   64.5310 H       1  ZINC001492779707    0.0600
     57 H57       -15.6097   -2.3726   65.0605 H       1  ZINC001492779707    0.1100
@<TRIPOS>BOND
     1     1     2    1
     2     1    29    1
     3     1    30    1
     4     1    31    1
     5     2    19    1
     6     2     3    2
     7     3     4    1
     8     4     5    2
     9     5     6    1
    10     5    19    1
    11     6     7    1
    12     6     8    1
    13     7    32    1
    14     7    33    1
    15     7    34    1
    16     8     9    1
    17     8    35    1
    18     8    36    1
    19     9    18   ar
    20     9    10   ar
    21    10    11   ar
    22    10    37    1
    23    11    12   ar
    24    11    38    1
    25    12    13   ar
    26    12    39    1
    27    13    14    1
    28    13    18   ar
    29    14    15    1
    30    15    16    1
    31    15    17    1
    32    15    40    1
    33    16    41    1
    34    16    42    1
    35    16    43    1
    36    17    44    1
    37    17    45    1
    38    17    46    1
    39    18    47    1
    40    19    20    1
    41    20    21    1
    42    20    48    1
    43    20    49    1
    44    21    22    1
    45    21    50    1
    46    21    51    1
    47    22    23    1
    48    22    28    1
    49    22    24    1
    50    24    25    1
    51    24    52    1
    52    24    53    1
    53    25    26    1
    54    26    27    1
    55    26    54    1
    56    26    55    1
    57    27    28    1
    58    27    56    1
    59    27    57    1
@<TRIPOS>SUBSTRUCTURE
     1 ZINC001492779707        1 TEMP              0 ****  ****    0 ROOT


##########                                Name:    ZINC000652498551
##########                DOCK_Rotatable_Bonds:                   6
##########                         Heavy_Atoms:                  23
##########                    Molecular_Weight:             388.277
##########                DOCK_Rotatable_Bonds:                   6
##########                       Formal_Charge:          -0.0400001
##########                     HBond_Acceptors:                   5
##########                        HBond_Donors:                   1
##########                         Heavy_Atoms:                  23
##########                          Grid_Score:          -33.645153
##########                     Grid_vdw_energy:          -29.419527
##########                      Grid_es_energy:           -4.225627
##########           Internal_energy_repulsive:           21.790920

@<TRIPOS>MOLECULE
ZINC000652498551
 46 47 1 0 0
SMALL
USER_CHARGES


@<TRIPOS>ATOM
      1 C1         -6.7424    1.1759   65.7526 C.3     1  ZINC000652498551   -0.1300
      2 C2         -8.0637    0.8714   66.4614 C.3     1  ZINC000652498551   -0.1300
      3 C3         -8.3905   -0.6160   66.3141 C.3     1  ZINC000652498551   -0.1300
      4 C4         -7.9407    1.2163   67.9232 C.2     1  ZINC000652498551    0.5000
      5 O5         -7.1944    2.1131   68.2772 O.co2   1  ZINC000652498551   -0.7000
      6 O6         -8.5874    0.5986   68.7519 O.co2   1  ZINC000652498551   -0.6700
      7 C7         -9.1831    1.7041   65.8334 C.3     1  ZINC000652498551   -0.0600
      8 H8         -8.8804    2.7505   65.7945 H       1  ZINC000652498551    0.0700
      9 C9        -10.4545    1.5705   66.6765 C.3     1  ZINC000652498551   -0.1500
     10 C10       -11.5890    2.3435   65.9977 C.3     1  ZINC000652498551   -0.1400
     11 C11       -11.7788    1.8147   64.5744 C.3     1  ZINC000652498551   -0.0100
     12 N12       -10.5375    1.9947   63.8120 N.4     1  ZINC000652498551   -0.3800
     13 H13       -10.2779    2.9697   63.8194 H       1  ZINC000652498551    0.4200
     14 C14       -10.7478    1.5559   62.4260 C.3     1  ZINC000652498551    0.0000
     15 C15       -10.9049    0.0343   62.3910 C.3     1  ZINC000652498551    0.0200
     16 O16        -9.7123   -0.5558   61.8700 O.3     1  ZINC000652498551   -0.3100
     17 C17        -9.8267   -1.2594   60.7130 C.ar    1  ZINC000652498551    0.1600
     18 C18        -9.7723   -2.6449   60.7348 C.ar    1  ZINC000652498551   -0.2300
     19 C19        -9.8890   -3.3594   59.5553 C.ar    1  ZINC000652498551    0.1500
     20 F20        -9.8361   -4.7092   59.5754 F       1  ZINC000652498551   -0.1200
     21 C21       -10.0602   -2.6912   58.3548 C.ar    1  ZINC000652498551   -0.1600
     22 C22       -10.1140   -1.3090   58.3322 C.ar    1  ZINC000652498551   -0.0300
     23 Br23      -10.3480   -0.3994   56.6910 Br      1  ZINC000652498551   -0.0100
     24 C24       -10.0036   -0.5925   59.5092 C.ar    1  ZINC000652498551   -0.1300
     25 C25        -9.4613    1.1997   64.4158 C.3     1  ZINC000652498551   -0.0200
     26 H26        -6.8314    0.9264   64.6952 H       1  ZINC000652498551    0.0400
     27 H27        -6.5097    2.2355   65.8575 H       1  ZINC000652498551    0.0500
     28 H28        -5.9449    0.5827   66.2000 H       1  ZINC000652498551    0.0600
     29 H29        -7.5930   -1.2092   66.7616 H       1  ZINC000652498551    0.0700
     30 H30        -9.3317   -0.8330   66.8192 H       1  ZINC000652498551    0.0400
     31 H31        -8.4794   -0.8656   65.2568 H       1  ZINC000652498551    0.0500
     32 H32       -10.7284    0.5187   66.7589 H       1  ZINC000652498551    0.1300
     33 H33       -10.2774    1.9812   67.6706 H       1  ZINC000652498551    0.0800
     34 H34       -12.5111    2.2073   66.5627 H       1  ZINC000652498551    0.1000
     35 H35       -11.3366    3.4033   65.9616 H       1  ZINC000652498551    0.0700
     36 H36       -12.0313    0.7550   64.6116 H       1  ZINC000652498551    0.1300
     37 H37       -12.5859    2.3627   64.0883 H       1  ZINC000652498551    0.1100
     38 H38       -11.6491    2.0233   62.0296 H       1  ZINC000652498551    0.1400
     39 H39        -9.8906    1.8466   61.8187 H       1  ZINC000652498551    0.1500
     40 H40       -11.0823   -0.3359   63.4007 H       1  ZINC000652498551    0.1100
     41 H41       -11.7490   -0.2292   61.7538 H       1  ZINC000652498551    0.0900
     42 H42        -9.6387   -3.1659   61.6713 H       1  ZINC000652498551    0.1500
     43 H43       -10.1516   -3.2496   57.4349 H       1  ZINC000652498551    0.1500
     44 H44       -10.0461    0.4865   59.4906 H       1  ZINC000652498551    0.1500
     45 H45        -8.5585    1.2937   63.8124 H       1  ZINC000652498551    0.1100
     46 H46        -9.7626    0.1530   64.4567 H       1  ZINC000652498551    0.1700
@<TRIPOS>BOND
     1     1     2    1
     2     1    26    1
     3     1    27    1
     4     1    28    1
     5     2     3    1
     6     2     4    1
     7     2     7    1
     8     3    29    1
     9     3    30    1
    10     3    31    1
    11     4     5   ar
    12     4     6   ar
    13     7     8    1
    14     7    25    1
    15     7     9    1
    16     9    10    1
    17     9    32    1
    18     9    33    1
    19    10    11    1
    20    10    34    1
    21    10    35    1
    22    11    12    1
    23    11    36    1
    24    11    37    1
    25    12    13    1
    26    12    14    1
    27    12    25    1
    28    14    15    1
    29    14    38    1
    30    14    39    1
    31    15    16    1
    32    15    40    1
    33    15    41    1
    34    16    17    1
    35    17    24   ar
    36    17    18   ar
    37    18    19   ar
    38    18    42    1
    39    19    20    1
    40    19    21   ar
    41    21    22   ar
    42    21    43    1
    43    22    23    1
    44    22    24   ar
    45    24    44    1
    46    25    45    1
    47    25    46    1
@<TRIPOS>SUBSTRUCTURE
     1 ZINC000652498551        1 TEMP              0 ****  ****    0 ROOT


##########                                Name:    ZINC000279593480
##########                DOCK_Rotatable_Bonds:                   9
##########                         Heavy_Atoms:                  23
##########                    Molecular_Weight:              340.85
##########                DOCK_Rotatable_Bonds:                   9
##########                       Formal_Charge:          -0.0500002
##########                     HBond_Acceptors:                   6
##########                        HBond_Donors:                   3
##########                         Heavy_Atoms:                  23
##########                          Grid_Score:          -33.635201
##########                     Grid_vdw_energy:          -34.060280
##########                      Grid_es_energy:            0.425079
##########           Internal_energy_repulsive:           15.174261

@<TRIPOS>MOLECULE
ZINC000279593480
 48 49 1 0 0
SMALL
USER_CHARGES


@<TRIPOS>ATOM
      1 C1        -14.5550   -5.7881   56.9102 C.3     1  ZINC000279593480   -0.1400
      2 C2        -14.2198   -5.7314   55.4184 C.3     1  ZINC000279593480   -0.1400
      3 C3        -13.7480   -4.3221   55.0549 C.3     1  ZINC000279593480    0.1700
      4 H4        -14.5585   -3.6130   55.2229 H       1  ZINC000279593480    0.0900
      5 C5        -13.3361   -4.2863   53.5819 C.3     1  ZINC000279593480   -0.0900
      6 C6        -12.5368   -3.0371   53.3140 C.ar    1  ZINC000279593480   -0.0800
      7 C7        -13.0277   -1.8055   53.7057 C.ar    1  ZINC000279593480   -0.1000
      8 C8        -12.2950   -0.6594   53.4604 C.ar    1  ZINC000279593480   -0.1100
      9 C9        -11.0702   -0.7450   52.8226 C.ar    1  ZINC000279593480   -0.0400
     10 Cl10      -10.1492    0.6940   52.5146 Cl      1  ZINC000279593480   -0.0700
     11 C11       -10.5796   -1.9778   52.4309 C.ar    1  ZINC000279593480   -0.1100
     12 C12       -11.3105   -3.1238   52.6818 C.ar    1  ZINC000279593480   -0.1000
     13 N13       -12.6012   -3.9600   55.8916 N.am    1  ZINC000279593480   -0.7400
     14 C14       -12.7523   -3.0729   56.8949 C.2     1  ZINC000279593480    0.7100
     15 O15       -13.8409   -2.5743   57.1066 O.2     1  ZINC000279593480   -0.5800
     16 N16       -11.6969   -2.7386   57.6636 N.am    1  ZINC000279593480   -0.7500
     17 C17       -11.8617   -1.7757   58.7552 C.3     1  ZINC000279593480    0.1200
     18 C18       -10.4972   -1.4713   59.3771 C.3     1  ZINC000279593480    0.0900
     19 O19        -9.4976   -1.3666   58.3612 O.3     1  ZINC000279593480   -0.5400
     20 C20       -10.5609   -0.1740   60.2139 C.3     1  ZINC000279593480   -0.1900
     21 C21       -10.2092   -0.6335   61.6462 C.3     1  ZINC000279593480    0.0500
     22 O22        -9.4485   -1.8482   61.4676 O.3     1  ZINC000279593480   -0.3600
     23 C23       -10.1145   -2.5612   60.4027 C.3     1  ZINC000279593480    0.0900
     24 H24       -11.0085   -3.0580   60.7798 H       1  ZINC000279593480    0.0800
     25 C25        -9.1660   -3.5816   59.7703 C.3     1  ZINC000279593480   -0.1400
     26 H26       -15.3458   -5.0716   57.1324 H       1  ZINC000279593480    0.0600
     27 H27       -14.8910   -6.7921   57.1691 H       1  ZINC000279593480    0.0400
     28 H28       -13.6669   -5.5409   57.4919 H       1  ZINC000279593480    0.0600
     29 H29       -13.4288   -6.4478   55.1963 H       1  ZINC000279593480    0.0600
     30 H30       -15.1078   -5.9786   54.8368 H       1  ZINC000279593480    0.0700
     31 H31       -12.7290   -5.1621   53.3529 H       1  ZINC000279593480    0.0800
     32 H32       -14.2278   -4.2884   52.9551 H       1  ZINC000279593480    0.0900
     33 H33       -13.9839   -1.7389   54.2033 H       1  ZINC000279593480    0.1300
     34 H34       -12.6787    0.3027   53.7661 H       1  ZINC000279593480    0.1300
     35 H35        -9.6237   -2.0452   51.9328 H       1  ZINC000279593480    0.1300
     36 H36       -10.9274   -4.0862   52.3765 H       1  ZINC000279593480    0.1300
     37 H37       -11.7330   -4.3587   55.7234 H       1  ZINC000279593480    0.3900
     38 H38       -10.8283   -3.1355   57.4939 H       1  ZINC000279593480    0.3900
     39 H39       -12.2968   -0.8555   58.3655 H       1  ZINC000279593480    0.0800
     40 H40       -12.5212   -2.1963   59.5144 H       1  ZINC000279593480    0.0800
     41 H41        -9.6506   -0.6490   57.7314 H       1  ZINC000279593480    0.3700
     42 H42        -9.8288    0.5489   59.8541 H       1  ZINC000279593480    0.0900
     43 H43       -11.5644    0.2505   60.1846 H       1  ZINC000279593480    0.0900
     44 H44        -9.6055    0.1217   62.1495 H       1  ZINC000279593480    0.1000
     45 H45       -11.1176   -0.8347   62.2139 H       1  ZINC000279593480    0.0600
     46 H46        -8.8631   -4.3106   60.5218 H       1  ZINC000279593480    0.0600
     47 H47        -9.6746   -4.0924   58.9527 H       1  ZINC000279593480    0.0700
     48 H48        -8.2844   -3.0686   59.3857 H       1  ZINC000279593480    0.0700
@<TRIPOS>BOND
     1     1     2    1
     2     1    26    1
     3     1    27    1
     4     1    28    1
     5     2     3    1
     6     2    29    1
     7     2    30    1
     8     3     4    1
     9     3     5    1
    10     3    13    1
    11     5     6    1
    12     5    31    1
    13     5    32    1
    14     6    12   ar
    15     6     7   ar
    16     7     8   ar
    17     7    33    1
    18     8     9   ar
    19     8    34    1
    20     9    10    1
    21     9    11   ar
    22    11    12   ar
    23    11    35    1
    24    12    36    1
    25    13    14   am
    26    13    37    1
    27    14    15    2
    28    14    16   am
    29    16    17    1
    30    16    38    1
    31    17    18    1
    32    17    39    1
    33    17    40    1
    34    18    23    1
    35    18    19    1
    36    18    20    1
    37    19    41    1
    38    20    21    1
    39    20    42    1
    40    20    43    1
    41    21    22    1
    42    21    44    1
    43    21    45    1
    44    22    23    1
    45    23    24    1
    46    23    25    1
    47    25    46    1
    48    25    47    1
    49    25    48    1
@<TRIPOS>SUBSTRUCTURE
     1 ZINC000279593480        1 TEMP              0 ****  ****    0 ROOT


##########                                Name:    ZINC001312809190
##########                DOCK_Rotatable_Bonds:                   6
##########                         Heavy_Atoms:                  29
##########                    Molecular_Weight:             395.501
##########                DOCK_Rotatable_Bonds:                   6
##########                       Formal_Charge:           0.0199995
##########                     HBond_Acceptors:                   6
##########                        HBond_Donors:                   1
##########                         Heavy_Atoms:                  29
##########                          Grid_Score:          -33.634167
##########                     Grid_vdw_energy:          -33.745411
##########                      Grid_es_energy:            0.111245
##########           Internal_energy_repulsive:           32.310638

@<TRIPOS>MOLECULE
ZINC001312809190
 58 61 1 0 0
SMALL
USER_CHARGES


@<TRIPOS>ATOM
      1 C1         -4.8002    1.7674   51.4517 C.3     1  ZINC001312809190    0.0300
      2 O2         -5.6095    0.6113   51.2269 O.3     1  ZINC001312809190   -0.3200
      3 C3         -6.9111    0.6854   51.6104 C.ar    1  ZINC001312809190    0.1300
      4 C4         -7.7470   -0.4094   51.4471 C.ar    1  ZINC001312809190   -0.2100
      5 C5         -9.0698   -0.3317   51.8383 C.ar    1  ZINC001312809190   -0.0800
      6 C6         -9.5607    0.8361   52.3916 C.ar    1  ZINC001312809190   -0.1300
      7 C7         -8.7295    1.9293   52.5550 C.ar    1  ZINC001312809190   -0.0500
      8 C8         -9.2681    3.2010   53.1581 C.3     1  ZINC001312809190    0.1200
      9 H9        -10.2009    3.4712   52.6633 H       1  ZINC001312809190    0.0500
     10 C10        -8.2477    4.3257   52.9721 C.3     1  ZINC001312809190   -0.1400
     11 N11        -9.5157    2.9966   54.5917 N.3     1  ZINC001312809190   -0.5300
     12 C12        -8.7901    1.8201   55.0887 C.3     1  ZINC001312809190    0.0300
     13 C13        -8.9267    1.7462   56.6132 C.3     1  ZINC001312809190    0.1400
     14 N14       -10.3562    1.7863   56.9567 N.am    1  ZINC001312809190   -0.6300
     15 C15       -10.8970    0.8626   57.7758 C.2     1  ZINC001312809190    0.7100
     16 O16       -12.0808    0.9110   58.0490 O.2     1  ZINC001312809190   -0.5800
     17 N17       -10.1256   -0.1146   58.2920 N.am    1  ZINC001312809190   -0.7300
     18 C18       -10.7134   -1.1185   59.1823 C.3     1  ZINC001312809190    0.1800
     19 H19       -11.6391   -0.7500   59.6244 H       1  ZINC001312809190    0.1200
     20 C20       -10.9460   -2.4247   58.4478 C.ar    1  ZINC001312809190   -0.1900
     21 C21       -11.5039   -2.7091   57.2214 C.ar    1  ZINC001312809190   -0.0500
     22 C22       -11.5848   -4.0202   56.7860 C.ar    1  ZINC001312809190   -0.1500
     23 C23       -11.1043   -5.0401   57.5859 C.ar    1  ZINC001312809190   -0.0800
     24 C24       -10.5482   -4.7577   58.8166 C.ar    1  ZINC001312809190   -0.1400
     25 C25       -10.4660   -3.4415   59.2636 C.ar    1  ZINC001312809190    0.1100
     26 O26        -9.9794   -2.9458   60.4345 O.3     1  ZINC001312809190   -0.2900
     27 C27        -9.7074   -1.5420   60.2787 C.3     1  ZINC001312809190    0.0800
     28 H28        -8.6823   -1.3821   59.9443 H       1  ZINC001312809190    0.0900
     29 C29        -9.9727   -0.7903   61.5845 C.3     1  ZINC001312809190   -0.1500
     30 C30       -11.1799    2.8614   56.3830 C.3     1  ZINC001312809190    0.1200
     31 C31       -10.9546    2.8913   54.8677 C.3     1  ZINC001312809190    0.0400
     32 C32        -7.4048    1.8545   52.1713 C.ar    1  ZINC001312809190   -0.1500
     33 H33        -3.7863    1.5749   51.1010 H       1  ZINC001312809190    0.1000
     34 H34        -5.2180    2.6147   50.9081 H       1  ZINC001312809190    0.0600
     35 H35        -4.7789    1.9943   52.5176 H       1  ZINC001312809190    0.0600
     36 H36        -7.3642   -1.3218   51.0142 H       1  ZINC001312809190    0.1300
     37 H37        -9.7210   -1.1839   51.7113 H       1  ZINC001312809190    0.1300
     38 H38       -10.5951    0.8951   52.6965 H       1  ZINC001312809190    0.1300
     39 H39        -7.3148    4.0555   53.4670 H       1  ZINC001312809190    0.0700
     40 H40        -8.0639    4.4774   51.9085 H       1  ZINC001312809190    0.0600
     41 H41        -8.6372    5.2456   53.4083 H       1  ZINC001312809190    0.0600
     42 H42        -9.2096    0.9186   54.6419 H       1  ZINC001312809190    0.0400
     43 H43        -7.7366    1.9026   54.8214 H       1  ZINC001312809190    0.1000
     44 H44        -8.4889    0.8160   56.9754 H       1  ZINC001312809190    0.1000
     45 H45        -8.4168    2.5955   57.0681 H       1  ZINC001312809190    0.0700
     46 H46        -9.1812   -0.1532   58.0739 H       1  ZINC001312809190    0.4000
     47 H47       -11.8784   -1.9093   56.5998 H       1  ZINC001312809190    0.1200
     48 H48       -12.0222   -4.2459   55.8246 H       1  ZINC001312809190    0.1300
     49 H49       -11.1648   -6.0634   57.2460 H       1  ZINC001312809190    0.1300
     50 H50       -10.1755   -5.5604   59.4356 H       1  ZINC001312809190    0.1300
     51 H51        -9.3119   -1.1707   62.3635 H       1  ZINC001312809190    0.0800
     52 H52        -9.7852    0.2731   61.4362 H       1  ZINC001312809190    0.0800
     53 H53       -11.0103   -0.9379   61.8844 H       1  ZINC001312809190    0.0700
     54 H54       -12.2319    2.6683   56.5932 H       1  ZINC001312809190    0.0800
     55 H55       -10.8866    3.8178   56.8158 H       1  ZINC001312809190    0.0800
     56 H56       -11.4709    3.7507   54.4401 H       1  ZINC001312809190    0.0900
     57 H57       -11.3439    1.9749   54.4239 H       1  ZINC001312809190    0.0400
     58 H58        -6.7560    2.7084   52.2994 H       1  ZINC001312809190    0.1300
@<TRIPOS>BOND
     1     1     2    1
     2     1    33    1
     3     1    34    1
     4     1    35    1
     5     2     3    1
     6     3    32   ar
     7     3     4   ar
     8     4     5   ar
     9     4    36    1
    10     5     6   ar
    11     5    37    1
    12     6     7   ar
    13     6    38    1
    14     7     8    1
    15     7    32   ar
    16     8     9    1
    17     8    10    1
    18     8    11    1
    19    10    39    1
    20    10    40    1
    21    10    41    1
    22    11    31    1
    23    11    12    1
    24    12    13    1
    25    12    42    1
    26    12    43    1
    27    13    14    1
    28    13    44    1
    29    13    45    1
    30    14    15   am
    31    14    30    1
    32    15    16    2
    33    15    17   am
    34    17    18    1
    35    17    46    1
    36    18    19    1
    37    18    27    1
    38    18    20    1
    39    20    25   ar
    40    20    21   ar
    41    21    22   ar
    42    21    47    1
    43    22    23   ar
    44    22    48    1
    45    23    24   ar
    46    23    49    1
    47    24    25   ar
    48    24    50    1
    49    25    26    1
    50    26    27    1
    51    27    28    1
    52    27    29    1
    53    29    51    1
    54    29    52    1
    55    29    53    1
    56    30    31    1
    57    30    54    1
    58    30    55    1
    59    31    56    1
    60    31    57    1
    61    32    58    1
@<TRIPOS>SUBSTRUCTURE
     1 ZINC001312809190        1 TEMP              0 ****  ****    0 ROOT


##########                                Name:    ZINC000655982608
##########                DOCK_Rotatable_Bonds:                   5
##########                         Heavy_Atoms:                  29
##########                    Molecular_Weight:             388.469
##########                DOCK_Rotatable_Bonds:                   5
##########                       Formal_Charge:          -0.0200006
##########                     HBond_Acceptors:                   6
##########                        HBond_Donors:                   0
##########                         Heavy_Atoms:                  29
##########                          Grid_Score:          -33.627750
##########                     Grid_vdw_energy:          -33.903236
##########                      Grid_es_energy:            0.275487
##########           Internal_energy_repulsive:           50.729671

@<TRIPOS>MOLECULE
ZINC000655982608
 53 57 1 0 0
SMALL
USER_CHARGES


@<TRIPOS>ATOM
      1 C1        -12.9741   -3.9981   57.6164 C.3     1  ZINC000655982608   -0.1900
      2 C2        -11.9753   -3.5139   56.5633 C.3     1  ZINC000655982608    0.0800
      3 H3        -11.2435   -4.2979   56.3689 H       1  ZINC000655982608    0.1000
      4 C4        -12.7205   -3.1793   55.2696 C.3     1  ZINC000655982608   -0.0300
      5 C5        -11.7627   -2.5612   54.2838 C.2     1  ZINC000655982608    0.2000
      6 N6        -11.5727   -1.2803   54.0777 N.2     1  ZINC000655982608   -0.4800
      7 C7        -10.6347   -1.2034   53.1169 C.2     1  ZINC000655982608    0.1700
      8 C8        -10.0663    0.0603   52.5244 C.3     1  ZINC000655982608   -0.0100
      9 H9        -10.6927    0.4226   51.7093 H       1  ZINC000655982608    0.1300
     10 C10        -9.8858    1.1475   53.6090 C.3     1  ZINC000655982608   -0.1400
     11 C11        -8.6035    1.8499   53.2206 C.2     1  ZINC000655982608    0.5200
     12 O12        -8.2495    2.9316   53.6395 O.2     1  ZINC000655982608   -0.5000
     13 N13        -7.9132    1.1003   52.3438 N.am    1  ZINC000655982608   -0.5600
     14 C14        -6.6862    1.4709   51.7827 C.ar    1  ZINC000655982608    0.1600
     15 C15        -6.0382    0.6165   50.9002 C.ar    1  ZINC000655982608   -0.1600
     16 C16        -4.8271    0.9852   50.3481 C.ar    1  ZINC000655982608   -0.0900
     17 C17        -4.2594    2.2033   50.6736 C.ar    1  ZINC000655982608   -0.1400
     18 C18        -4.9017    3.0561   51.5523 C.ar    1  ZINC000655982608   -0.0900
     19 C19        -6.1163    2.6962   52.1027 C.ar    1  ZINC000655982608   -0.1600
     20 C20        -8.6123   -0.1568   52.0499 C.3     1  ZINC000655982608    0.1100
     21 N21       -10.3082   -2.4189   52.7937 N.2     1  ZINC000655982608   -0.3700
     22 O22       -10.9406   -3.2140   53.4566 O.3     1  ZINC000655982608    0.0900
     23 N23       -11.2872   -2.3134   57.0566 N.3     1  ZINC000655982608   -0.4700
     24 C24       -12.2383   -1.1960   57.2426 C.3     1  ZINC000655982608    0.0300
     25 C25       -11.6118   -0.4107   58.4176 C.3     1  ZINC000655982608   -0.0800
     26 C26       -10.8088   -1.4726   59.1422 C.ar    1  ZINC000655982608   -0.1400
     27 C27       -10.2574   -1.4993   60.4056 C.ar    1  ZINC000655982608   -0.0800
     28 C28        -9.5615   -2.6153   60.8349 C.ar    1  ZINC000655982608   -0.1400
     29 C29        -9.4202   -3.7044   59.9950 C.ar    1  ZINC000655982608   -0.0900
     30 C30        -9.9681   -3.6819   58.7291 C.ar    1  ZINC000655982608   -0.1400
     31 C31       -10.6678   -2.5602   58.2880 C.ar    1  ZINC000655982608    0.1000
     32 H32       -13.4034   -4.9486   57.2999 H       1  ZINC000655982608    0.0700
     33 H33       -12.4618   -4.1302   58.5694 H       1  ZINC000655982608    0.0700
     34 H34       -13.7685   -3.2605   57.7301 H       1  ZINC000655982608    0.0700
     35 H35       -13.1399   -4.0916   54.8456 H       1  ZINC000655982608    0.1200
     36 H36       -13.5245   -2.4756   55.4850 H       1  ZINC000655982608    0.1100
     37 H37       -10.7231    1.8454   53.5926 H       1  ZINC000655982608    0.1200
     38 H38        -9.7876    0.6912   54.5940 H       1  ZINC000655982608    0.1200
     39 H39        -6.4807   -0.3353   50.6462 H       1  ZINC000655982608    0.1200
     40 H40        -4.3228    0.3212   49.6617 H       1  ZINC000655982608    0.1300
     41 H41        -3.3122    2.4891   50.2407 H       1  ZINC000655982608    0.1200
     42 H42        -4.4555    4.0066   51.8050 H       1  ZINC000655982608    0.1300
     43 H43        -6.6175    3.3627   52.7891 H       1  ZINC000655982608    0.1500
     44 H44        -8.1556   -0.9798   52.5996 H       1  ZINC000655982608    0.0900
     45 H45        -8.5901   -0.3592   50.9791 H       1  ZINC000655982608    0.1000
     46 H46       -12.2877   -0.5771   56.3467 H       1  ZINC000655982608    0.1000
     47 H47       -13.2264   -1.5698   57.5105 H       1  ZINC000655982608    0.0700
     48 H48       -10.9602    0.3814   58.0488 H       1  ZINC000655982608    0.0900
     49 H49       -12.3871   -0.0033   59.0665 H       1  ZINC000655982608    0.0800
     50 H50       -10.3685   -0.6479   61.0606 H       1  ZINC000655982608    0.1200
     51 H51        -9.1291   -2.6356   61.8244 H       1  ZINC000655982608    0.1200
     52 H52        -8.8784   -4.5760   60.3310 H       1  ZINC000655982608    0.1300
     53 H53        -9.8539   -4.5356   58.0776 H       1  ZINC000655982608    0.1200
@<TRIPOS>BOND
     1     1     2    1
     2     1    32    1
     3     1    33    1
     4     1    34    1
     5     2     3    1
     6     2     4    1
     7     2    23    1
     8     4     5    1
     9     4    35    1
    10     4    36    1
    11     5    22    1
    12     5     6    2
    13     6     7    1
    14     7     8    1
    15     7    21    2
    16     8     9    1
    17     8    20    1
    18     8    10    1
    19    10    11    1
    20    10    37    1
    21    10    38    1
    22    11    12    2
    23    11    13   am
    24    13    14    1
    25    13    20    1
    26    14    19   ar
    27    14    15   ar
    28    15    16   ar
    29    15    39    1
    30    16    17   ar
    31    16    40    1
    32    17    18   ar
    33    17    41    1
    34    18    19   ar
    35    18    42    1
    36    19    43    1
    37    20    44    1
    38    20    45    1
    39    21    22    1
    40    23    31    1
    41    23    24    1
    42    24    25    1
    43    24    46    1
    44    24    47    1
    45    25    26    1
    46    25    48    1
    47    25    49    1
    48    26    31   ar
    49    26    27   ar
    50    27    28   ar
    51    27    50    1
    52    28    29   ar
    53    28    51    1
    54    29    30   ar
    55    29    52    1
    56    30    31   ar
    57    30    53    1
@<TRIPOS>SUBSTRUCTURE
     1 ZINC000655982608        1 TEMP              0 ****  ****    0 ROOT


##########                                Name:    ZINC000151991096
##########                DOCK_Rotatable_Bonds:                   8
##########                         Heavy_Atoms:                  27
##########                    Molecular_Weight:             364.444
##########                DOCK_Rotatable_Bonds:                   8
##########                       Formal_Charge:          -0.0200004
##########                     HBond_Acceptors:                   5
##########                        HBond_Donors:                   1
##########                         Heavy_Atoms:                  27
##########                          Grid_Score:          -33.620014
##########                     Grid_vdw_energy:          -33.723267
##########                      Grid_es_energy:            0.103252
##########           Internal_energy_repulsive:           17.474409

@<TRIPOS>MOLECULE
ZINC000151991096
 51 53 1 0 0
SMALL
USER_CHARGES


@<TRIPOS>ATOM
      1 C1         -8.8220   -0.7811   67.2799 C.3     1  ZINC000151991096   -0.1500
      2 C2         -9.1791    0.6546   66.8895 C.3     1  ZINC000151991096   -0.1300
      3 C3         -8.3910    1.0545   65.6405 C.3     1  ZINC000151991096    0.1400
      4 H4         -8.6623    2.0692   65.3490 H       1  ZINC000151991096    0.1000
      5 N5         -8.7067    0.1315   64.5476 N.am    1  ZINC000151991096   -0.7200
      6 C6         -9.7558    0.3787   63.7385 C.2     1  ZINC000151991096    0.5600
      7 O7        -10.4413    1.3669   63.9167 O.2     1  ZINC000151991096   -0.5300
      8 C8        -10.0727   -0.5504   62.6362 C.ar    1  ZINC000151991096   -0.1700
      9 C9         -9.2885   -1.6887   62.4322 C.ar    1  ZINC000151991096   -0.0500
     10 C10        -9.5877   -2.5533   61.4030 C.ar    1  ZINC000151991096   -0.1600
     11 C11       -10.6681   -2.2948   60.5676 C.ar    1  ZINC000151991096    0.1600
     12 O12       -10.9600   -3.1495   59.5547 O.3     1  ZINC000151991096   -0.3000
     13 C13       -10.0343   -3.2074   58.4676 C.3     1  ZINC000151991096    0.0900
     14 C14       -10.1774   -1.9701   57.6195 C.ar    1  ZINC000151991096   -0.0500
     15 C15        -9.4437   -0.8403   57.9156 C.ar    1  ZINC000151991096   -0.1000
     16 C16        -9.5740    0.2968   57.1377 C.ar    1  ZINC000151991096   -0.0900
     17 C17       -10.4402    0.3093   56.0591 C.ar    1  ZINC000151991096   -0.1200
     18 C18       -11.1803   -0.8138   55.7516 C.ar    1  ZINC000151991096   -0.0700
     19 C19       -11.0492   -1.9664   56.5284 C.ar    1  ZINC000151991096   -0.0200
     20 C20       -11.8141   -3.1358   56.2150 C.1     1  ZINC000151991096    0.2400
     21 N21       -12.4209   -4.0634   55.9664 N.1     1  ZINC000151991096   -0.4000
     22 C22       -11.4506   -1.1635   60.7672 C.ar    1  ZINC000151991096   -0.2200
     23 C23       -11.1612   -0.2969   61.7974 C.ar    1  ZINC000151991096   -0.0100
     24 C24        -6.8922    0.9942   65.9423 C.3     1  ZINC000151991096    0.0700
     25 H25        -6.6256   -0.0027   66.2931 H       1  ZINC000151991096    0.1000
     26 C26        -6.5321    2.0416   67.0178 C.3     1  ZINC000151991096   -0.1500
     27 C27        -5.1642    2.5759   66.5125 C.3     1  ZINC000151991096   -0.1600
     28 C28        -5.3670    2.4993   64.9783 C.3     1  ZINC000151991096    0.0500
     29 O29        -6.1458    1.3096   64.7612 O.3     1  ZINC000151991096   -0.3700
     30 H30        -7.7540   -0.8461   67.4878 H       1  ZINC000151991096    0.0500
     31 H31        -9.3835   -1.0659   68.1696 H       1  ZINC000151991096    0.0500
     32 H32        -9.0742   -1.4539   66.4602 H       1  ZINC000151991096    0.0600
     33 H33       -10.2471    0.7196   66.6814 H       1  ZINC000151991096    0.0700
     34 H34        -8.9269    1.3274   67.7091 H       1  ZINC000151991096    0.0700
     35 H35        -8.1605   -0.6576   64.4061 H       1  ZINC000151991096    0.4000
     36 H36        -8.4487   -1.8901   63.0806 H       1  ZINC000151991096    0.1300
     37 H37        -8.9819   -3.4332   61.2444 H       1  ZINC000151991096    0.1400
     38 H38        -9.0183   -3.2646   58.8582 H       1  ZINC000151991096    0.0800
     39 H39       -10.2407   -4.0894   57.8613 H       1  ZINC000151991096    0.0800
     40 H40        -8.7662   -0.8431   58.7566 H       1  ZINC000151991096    0.1400
     41 H41        -8.9970    1.1786   57.3741 H       1  ZINC000151991096    0.1400
     42 H42       -10.5376    1.2004   55.4567 H       1  ZINC000151991096    0.1400
     43 H43       -11.8564   -0.8025   54.9095 H       1  ZINC000151991096    0.1400
     44 H44       -12.2891   -0.9660   60.1158 H       1  ZINC000151991096    0.1300
     45 H45       -11.7698    0.5818   61.9521 H       1  ZINC000151991096    0.1400
     46 H46        -7.2739    2.8397   67.0459 H       1  ZINC000151991096    0.0800
     47 H47        -6.4279    1.5728   67.9964 H       1  ZINC000151991096    0.0900
     48 H48        -5.0000    3.6037   66.8362 H       1  ZINC000151991096    0.0800
     49 H49        -4.3471    1.9297   66.8334 H       1  ZINC000151991096    0.0800
     50 H50        -5.9084    3.3765   64.6240 H       1  ZINC000151991096    0.0600
     51 H51        -4.4047    2.4179   64.4729 H       1  ZINC000151991096    0.0900
@<TRIPOS>BOND
     1     1     2    1
     2     1    30    1
     3     1    31    1
     4     1    32    1
     5     2     3    1
     6     2    33    1
     7     2    34    1
     8     3     4    1
     9     3     5    1
    10     3    24    1
    11     5     6   am
    12     5    35    1
    13     6     7    2
    14     6     8    1
    15     8    23   ar
    16     8     9   ar
    17     9    10   ar
    18     9    36    1
    19    10    11   ar
    20    10    37    1
    21    11    12    1
    22    11    22   ar
    23    12    13    1
    24    13    14    1
    25    13    38    1
    26    13    39    1
    27    14    19   ar
    28    14    15   ar
    29    15    16   ar
    30    15    40    1
    31    16    17   ar
    32    16    41    1
    33    17    18   ar
    34    17    42    1
    35    18    19   ar
    36    18    43    1
    37    19    20    1
    38    20    21    3
    39    22    23   ar
    40    22    44    1
    41    23    45    1
    42    24    25    1
    43    24    29    1
    44    24    26    1
    45    26    27    1
    46    26    46    1
    47    26    47    1
    48    27    28    1
    49    27    48    1
    50    27    49    1
    51    28    29    1
    52    28    50    1
    53    28    51    1
@<TRIPOS>SUBSTRUCTURE
     1 ZINC000151991096        1 TEMP              0 ****  ****    0 ROOT


##########                                Name:    ZINC000291036115
##########                DOCK_Rotatable_Bonds:                   5
##########                         Heavy_Atoms:                  22
##########                    Molecular_Weight:             366.193
##########                DOCK_Rotatable_Bonds:                   5
##########                       Formal_Charge:                0.01
##########                     HBond_Acceptors:                   7
##########                        HBond_Donors:                   0
##########                         Heavy_Atoms:                  22
##########                          Grid_Score:          -33.615356
##########                     Grid_vdw_energy:          -31.463629
##########                      Grid_es_energy:           -2.151726
##########           Internal_energy_repulsive:            4.735231

@<TRIPOS>MOLECULE
ZINC000291036115
 35 37 1 0 0
SMALL
USER_CHARGES


@<TRIPOS>ATOM
      1 C1         -9.7903   -1.2771   58.7338 C.3     1  <0>        -0.1500
      2 C2        -10.9281   -1.8554   59.5778 C.3     1  <0>        -0.0400
      3 H3        -11.6724   -1.0809   59.7636 H       1  <0>         0.0900
      4 C4        -10.3701   -2.3569   60.9111 C.3     1  <0>        -0.0200
      5 C5        -10.3214   -1.2172   61.8958 C.2     1  <0>         0.1900
      6 N6         -9.3308   -0.9251   62.7039 N.2     1  <0>        -0.4500
      7 C7         -9.7306    0.1611   63.3889 C.2     1  <0>         0.1500
      8 C8         -8.9418    0.8885   64.4471 C.3     1  <0>         0.2300
      9 N9         -9.2692    0.3383   65.7648 N.pl3   1  <0>        -0.3900
     10 C10        -8.7074   -0.7318   66.3533 C.2     1  <0>         0.2600
     11 N11        -9.2736   -0.8968   67.5212 N.2     1  <0>        -0.5400
     12 C12       -10.1973    0.0442   67.7126 C.2     1  <0>         0.2000
     13 N13       -10.2281    0.8277   66.6667 N.2     1  <0>        -0.3100
     14 N14       -10.9217    0.4686   62.9702 N.2     1  <0>        -0.3600
     15 O15       -11.2771   -0.3075   62.1083 O.3     1  <0>         0.0900
     16 C16       -11.5694   -3.0014   58.8386 C.ar    1  <0>        -0.0900
     17 C17       -10.8114   -4.0982   58.4737 C.ar    1  <0>        -0.0700
     18 C18       -11.3981   -5.1505   57.7961 C.ar    1  <0>        -0.1400
     19 C19       -12.7455   -5.1061   57.4827 C.ar    1  <0>         0.1300
     20 F20       -13.3200   -6.1342   56.8208 F       1  <0>        -0.1200
     21 C21       -13.5049   -4.0062   57.8488 C.ar    1  <0>        -0.1300
     22 Br22      -15.3460   -3.9434   57.4223 Br      1  <0>        -0.0200
     23 C23       -12.9167   -2.9575   58.5311 C.ar    1  <0>        -0.0500
     24 H24        -9.3265   -0.4482   59.2684 H       1  <0>         0.0600
     25 H25        -9.0462   -2.0515   58.5480 H       1  <0>         0.0700
     26 H26       -10.1879   -0.9198   57.7839 H       1  <0>         0.0700
     27 H27       -11.0134   -3.1461   61.3003 H       1  <0>         0.1200
     28 H28        -9.3646   -2.7494   60.7596 H       1  <0>         0.1100
     29 H29        -7.8760    0.7637   64.2559 H       1  <0>         0.1300
     30 H30        -9.1935    1.9487   64.4233 H       1  <0>         0.1200
     31 H31        -7.9255   -1.3483   65.9348 H       1  <0>         0.2200
     32 H32       -10.8170    0.1458   68.5912 H       1  <0>         0.2200
     33 H33        -9.7599   -4.1328   58.7179 H       1  <0>         0.1400
     34 H34       -10.8053   -6.0070   57.5110 H       1  <0>         0.1500
     35 H35       -13.5079   -2.1000   58.8166 H       1  <0>         0.1400
@<TRIPOS>BOND
     1     1     2    1
     2     1    24    1
     3     1    25    1
     4     1    26    1
     5     2     3    1
     6     2     4    1
     7     2    16    1
     8     4     5    1
     9     4    27    1
    10     4    28    1
    11     5    15    1
    12     5     6    2
    13     6     7    1
    14     7     8    1
    15     7    14    2
    16     8     9    1
    17     8    29    1
    18     8    30    1
    19     9    13    1
    20     9    10    1
    21    10    11    2
    22    10    31    1
    23    11    12    1
    24    12    13    2
    25    12    32    1
    26    14    15    1
    27    16    23   ar
    28    16    17   ar
    29    17    18   ar
    30    17    33    1
    31    18    19   ar
    32    18    34    1
    33    19    20    1
    34    19    21   ar
    35    21    22    1
    36    21    23   ar
    37    23    35    1
@<TRIPOS>SUBSTRUCTURE
     1 <0>         1 TEMP              0 ****  ****    0 ROOT


##########                                Name:    ZINC001015666108
##########                DOCK_Rotatable_Bonds:                   7
##########                         Heavy_Atoms:                  25
##########                    Molecular_Weight:             346.429
##########                DOCK_Rotatable_Bonds:                   7
##########                       Formal_Charge:          -0.0199997
##########                     HBond_Acceptors:                   7
##########                        HBond_Donors:                   1
##########                         Heavy_Atoms:                  25
##########                          Grid_Score:          -33.596161
##########                     Grid_vdw_energy:          -32.959282
##########                      Grid_es_energy:           -0.636879
##########           Internal_energy_repulsive:           14.648050

@<TRIPOS>MOLECULE
ZINC001015666108
 51 53 1 0 0
SMALL
USER_CHARGES


@<TRIPOS>ATOM
      1 C1        -15.2421   -0.3441   48.4272 C.3     1  ZINC001015666108   -0.1400
      2 C2        -14.1617    0.3139   49.2879 C.3     1  ZINC001015666108   -0.0700
      3 C3        -14.7457    0.6924   50.6246 C.2     1  ZINC001015666108   -0.0700
      4 C4        -14.8106   -0.0952   51.7381 C.2     1  ZINC001015666108   -0.0900
      5 C5        -14.3211   -1.4733   51.8486 C.2     1  ZINC001015666108    0.6100
      6 O6        -13.7620   -1.9980   50.9035 O.2     1  ZINC001015666108   -0.5100
      7 N7        -14.4902   -2.1584   52.9968 N.am    1  ZINC001015666108   -0.7200
      8 C8        -14.0028   -3.5356   53.1066 C.3     1  ZINC001015666108    0.1400
      9 H9        -14.3291   -4.1215   52.2472 H       1  ZINC001015666108    0.1100
     10 C10       -12.4606   -3.5520   53.2129 C.3     1  ZINC001015666108   -0.1300
     11 C11       -12.2197   -3.6555   54.7399 C.3     1  ZINC001015666108    0.0300
     12 N12       -13.3065   -4.5597   55.1950 N.3     1  ZINC001015666108   -0.5100
     13 C13       -13.5478   -4.4089   56.6361 C.3     1  ZINC001015666108    0.1700
     14 H14       -14.0511   -3.4603   56.8229 H       1  ZINC001015666108    0.0900
     15 C15       -14.4284   -5.5590   57.1289 C.3     1  ZINC001015666108   -0.1500
     16 C16       -12.2324   -4.4330   57.3711 C.2     1  ZINC001015666108    0.1900
     17 N17       -11.6978   -3.4453   58.0479 N.2     1  ZINC001015666108   -0.4800
     18 C18       -10.5342   -3.9217   58.5255 C.2     1  ZINC001015666108    0.1800
     19 C19        -9.5424   -3.1675   59.3730 C.3     1  ZINC001015666108    0.0000
     20 C20        -9.5489   -1.6906   58.9734 C.3     1  ZINC001015666108   -0.1500
     21 C21        -9.9279   -3.2986   60.8477 C.3     1  ZINC001015666108   -0.1500
     22 N22       -10.4226   -5.1519   58.1221 N.2     1  ZINC001015666108   -0.3800
     23 O23       -11.3905   -5.4669   57.4623 O.3     1  ZINC001015666108    0.1000
     24 C24       -14.5051   -4.1778   54.4130 C.3     1  ZINC001015666108    0.0300
     25 O25       -15.4040    0.6163   52.7188 O.3     1  ZINC001015666108   -0.1700
     26 C26       -15.7172    1.8340   52.2573 C.2     1  ZINC001015666108    0.0000
     27 C27       -15.3228    1.9249   50.9680 C.2     1  ZINC001015666108   -0.2200
     28 H28       -14.8198   -0.6178   47.4604 H       1  ZINC001015666108    0.0600
     29 H29       -15.6114   -1.2385   48.9288 H       1  ZINC001015666108    0.0600
     30 H30       -16.0649    0.3554   48.2794 H       1  ZINC001015666108    0.0500
     31 H31       -13.3389   -0.3856   49.4358 H       1  ZINC001015666108    0.0900
     32 H32       -13.7924    1.2085   48.7863 H       1  ZINC001015666108    0.0700
     33 H33       -14.9348   -1.7398   53.7505 H       1  ZINC001015666108    0.4000
     34 H34       -12.0477   -4.4194   52.6976 H       1  ZINC001015666108    0.0900
     35 H35       -12.0368   -2.6291   52.8170 H       1  ZINC001015666108    0.0800
     36 H36       -11.2431   -4.0934   54.9464 H       1  ZINC001015666108    0.0800
     37 H37       -12.3109   -2.6768   55.2108 H       1  ZINC001015666108    0.0500
     38 H38       -13.9252   -6.5077   56.9421 H       1  ZINC001015666108    0.0800
     39 H39       -14.6076   -5.4471   58.1982 H       1  ZINC001015666108    0.0700
     40 H40       -15.3799   -5.5416   56.5974 H       1  ZINC001015666108    0.0800
     41 H41        -8.5454   -3.5808   59.2200 H       1  ZINC001015666108    0.1000
     42 H42       -10.5459   -1.2773   59.1263 H       1  ZINC001015666108    0.0600
     43 H43        -8.8315   -1.1451   59.5863 H       1  ZINC001015666108    0.0700
     44 H44        -9.2743   -1.5972   57.9227 H       1  ZINC001015666108    0.0600
     45 H45       -10.9249   -2.8853   61.0007 H       1  ZINC001015666108    0.0600
     46 H46        -9.9232   -4.3507   61.1324 H       1  ZINC001015666108    0.0600
     47 H47        -9.2105   -2.7530   61.4608 H       1  ZINC001015666108    0.0700
     48 H48       -15.1013   -3.4588   54.9748 H       1  ZINC001015666108    0.0600
     49 H49       -15.1001   -5.0632   54.1893 H       1  ZINC001015666108    0.1000
     50 H50       -16.2013    2.6159   52.8236 H       1  ZINC001015666108    0.2100
     51 H51       -15.4363    2.7825   50.3214 H       1  ZINC001015666108    0.1600
@<TRIPOS>BOND
     1     1     2    1
     2     1    28    1
     3     1    29    1
     4     1    30    1
     5     2     3    1
     6     2    31    1
     7     2    32    1
     8     3    27    1
     9     3     4    2
    10     4     5    1
    11     4    25    1
    12     5     6    2
    13     5     7   am
    14     7     8    1
    15     7    33    1
    16     8     9    1
    17     8    24    1
    18     8    10    1
    19    10    11    1
    20    10    34    1
    21    10    35    1
    22    11    12    1
    23    11    36    1
    24    11    37    1
    25    12    13    1
    26    12    24    1
    27    13    14    1
    28    13    15    1
    29    13    16    1
    30    15    38    1
    31    15    39    1
    32    15    40    1
    33    16    23    1
    34    16    17    2
    35    17    18    1
    36    18    19    1
    37    18    22    2
    38    19    20    1
    39    19    21    1
    40    19    41    1
    41    20    42    1
    42    20    43    1
    43    20    44    1
    44    21    45    1
    45    21    46    1
    46    21    47    1
    47    22    23    1
    48    24    48    1
    49    24    49    1
    50    25    26    1
    51    26    27    2
    52    26    50    1
    53    27    51    1
@<TRIPOS>SUBSTRUCTURE
     1 ZINC001015666108        1 TEMP              0 ****  ****    0 ROOT


##########                                Name:    ZINC000848949366
##########                DOCK_Rotatable_Bonds:                   8
##########                         Heavy_Atoms:                  25
##########                    Molecular_Weight:             368.773
##########                DOCK_Rotatable_Bonds:                   8
##########                       Formal_Charge:          0.00999947
##########                     HBond_Acceptors:                   9
##########                        HBond_Donors:                   3
##########                         Heavy_Atoms:                  25
##########                          Grid_Score:          -33.560101
##########                     Grid_vdw_energy:          -32.735092
##########                      Grid_es_energy:           -0.825009
##########           Internal_energy_repulsive:            8.329664

@<TRIPOS>MOLECULE
ZINC000848949366
 42 43 1 0 0
SMALL
USER_CHARGES


@<TRIPOS>ATOM
      1 C1        -11.8361   -3.0997   52.5439 C.3     1  ZINC000848949366   -0.1500
      2 C2        -11.6131   -3.9404   53.8027 C.3     1  ZINC000848949366    0.0600
      3 O3        -11.8601   -3.1396   54.9601 O.3     1  ZINC000848949366   -0.3500
      4 C4        -11.8543   -3.7695   56.1535 C.2     1  ZINC000848949366    0.5400
      5 O5        -10.9473   -4.5301   56.4356 O.2     1  ZINC000848949366   -0.4800
      6 C6        -12.9025   -3.5457   57.0767 C.2     1  ZINC000848949366   -0.2300
      7 C7        -12.6903   -2.8617   58.2215 C.2     1  ZINC000848949366    0.2000
      8 C8        -11.3135   -2.3272   58.5214 C.3     1  ZINC000848949366    0.1000
      9 O9        -11.3575   -1.5288   59.7334 O.3     1  ZINC000848949366   -0.3500
     10 C10       -10.1980   -1.3641   60.3998 C.2     1  ZINC000848949366    0.5100
     11 O11        -9.1500   -1.7095   59.8907 O.2     1  ZINC000848949366   -0.4800
     12 C12       -10.2007   -0.7649   61.7460 C.ar    1  ZINC000848949366   -0.1600
     13 C13        -9.3681   -1.2772   62.7449 C.ar    1  ZINC000848949366   -0.0300
     14 C14        -9.3752   -0.7129   64.0014 C.ar    1  ZINC000848949366   -0.1300
     15 C15       -10.2054    0.3622   64.2807 C.ar    1  ZINC000848949366    0.0200
     16 Cl16      -10.2046    1.0634   65.8688 Cl      1  ZINC000848949366   -0.0500
     17 C17       -11.0335    0.8789   63.3016 C.ar    1  ZINC000848949366   -0.1500
     18 C18       -11.0347    0.3265   62.0304 C.ar    1  ZINC000848949366    0.1900
     19 O19       -11.8465    0.8323   61.0687 O.3     1  ZINC000848949366   -0.4700
     20 N20       -13.7031   -2.6459   59.1117 N.am    1  ZINC000848949366   -0.6400
     21 C21       -14.9562   -3.0818   58.9306 C.2     1  ZINC000848949366    0.7100
     22 O22       -15.7912   -2.8404   59.7805 O.2     1  ZINC000848949366   -0.5600
     23 N23       -15.3219   -3.7792   57.8369 N.am    1  ZINC000848949366   -0.7100
     24 C24       -14.3029   -4.0600   56.8116 C.3     1  ZINC000848949366    0.2000
     25 H25       -14.6503   -3.6384   55.8684 H       1  ZINC000848949366    0.0900
     26 C26       -14.2122   -5.5776   56.6400 C.3     1  ZINC000848949366   -0.1700
     27 H27       -11.6477   -3.7105   51.6609 H       1  ZINC000848949366    0.0800
     28 H28       -12.8651   -2.7405   52.5245 H       1  ZINC000848949366    0.0700
     29 H29       -11.1544   -2.2492   52.5495 H       1  ZINC000848949366    0.0700
     30 H30       -12.2948   -4.7908   53.7970 H       1  ZINC000848949366    0.0700
     31 H31       -10.5841   -4.2995   53.8221 H       1  ZINC000848949366    0.0700
     32 H32       -10.6228   -3.1592   58.6593 H       1  ZINC000848949366    0.1100
     33 H33       -10.9752   -1.7081   57.6906 H       1  ZINC000848949366    0.1000
     34 H34        -8.7205   -2.1148   62.5320 H       1  ZINC000848949366    0.1500
     35 H35        -8.7315   -1.1097   64.7725 H       1  ZINC000848949366    0.1500
     36 H36       -11.6774    1.7162   63.5266 H       1  ZINC000848949366    0.1500
     37 H37       -11.5244    0.6913   60.1678 H       1  ZINC000848949366    0.4000
     38 H38       -13.5036   -2.1491   59.9206 H       1  ZINC000848949366    0.4300
     39 H39       -16.2355   -4.0858   57.7262 H       1  ZINC000848949366    0.4400
     40 H40       -15.1806   -5.9662   56.3251 H       1  ZINC000848949366    0.0700
     41 H41       -13.4628   -5.8136   55.8844 H       1  ZINC000848949366    0.0700
     42 H42       -13.9283   -6.0341   57.5883 H       1  ZINC000848949366    0.0700
@<TRIPOS>BOND
     1     1     2    1
     2     1    27    1
     3     1    28    1
     4     1    29    1
     5     2     3    1
     6     2    30    1
     7     2    31    1
     8     3     4    1
     9     4     5    2
    10     4     6    1
    11     6    24    1
    12     6     7    2
    13     7     8    1
    14     7    20    1
    15     8     9    1
    16     8    32    1
    17     8    33    1
    18     9    10    1
    19    10    11    2
    20    10    12    1
    21    12    18   ar
    22    12    13   ar
    23    13    14   ar
    24    13    34    1
    25    14    15   ar
    26    14    35    1
    27    15    16    1
    28    15    17   ar
    29    17    18   ar
    30    17    36    1
    31    18    19    1
    32    19    37    1
    33    20    21   am
    34    20    38    1
    35    21    22    2
    36    21    23   am
    37    23    24    1
    38    23    39    1
    39    24    25    1
    40    24    26    1
    41    26    40    1
    42    26    41    1
    43    26    42    1
@<TRIPOS>SUBSTRUCTURE
     1 ZINC000848949366        1 TEMP              0 ****  ****    0 ROOT


##########                                Name:    ZINC001078110631
##########                DOCK_Rotatable_Bonds:                   7
##########                         Heavy_Atoms:                  25
##########                    Molecular_Weight:             353.369
##########                DOCK_Rotatable_Bonds:                   7
##########                       Formal_Charge:           0.0100006
##########                     HBond_Acceptors:                   8
##########                        HBond_Donors:                   2
##########                         Heavy_Atoms:                  25
##########                          Grid_Score:          -33.547691
##########                     Grid_vdw_energy:          -32.672878
##########                      Grid_es_energy:           -0.874813
##########           Internal_energy_repulsive:            9.014086

@<TRIPOS>MOLECULE
ZINC001078110631
 46 48 1 0 0
SMALL
USER_CHARGES


@<TRIPOS>ATOM
      1 O1        -10.4584   -4.8405   58.6653 O.2     1  ZINC001078110631   -0.5100
      2 C2        -10.9783   -3.7414   58.6538 C.2     1  ZINC001078110631    0.5600
      3 N3        -11.6675   -3.3332   57.5699 N.am    1  ZINC001078110631   -0.7200
      4 C4        -11.7852   -4.2115   56.4032 C.3     1  ZINC001078110631    0.1500
      5 H5        -11.0065   -4.9738   56.4239 H       1  ZINC001078110631    0.1200
      6 C6        -11.6947   -3.3877   55.1008 C.3     1  ZINC001078110631    0.0300
      7 N7        -12.6594   -4.0394   54.1778 N.3     1  ZINC001078110631   -0.5000
      8 C8        -13.0627   -3.1216   53.1040 C.3     1  ZINC001078110631    0.0300
      9 C9        -11.9026   -2.9438   52.1225 C.3     1  ZINC001078110631    0.1300
     10 N10       -11.3143   -1.6136   52.2976 N.am    1  ZINC001078110631   -0.6200
     11 C11        -9.9610   -1.3676   52.8095 C.3     1  ZINC001078110631    0.1000
     12 C12        -9.6291    0.0884   52.4138 C.3     1  ZINC001078110631   -0.1300
     13 C13       -11.0388    0.7141   52.3029 C.3     1  ZINC001078110631   -0.1600
     14 C14       -11.9425   -0.4619   52.0048 C.2     1  ZINC001078110631    0.5200
     15 O15       -13.0722   -0.3776   51.5716 O.2     1  ZINC001078110631   -0.5200
     16 C16       -13.8155   -4.3864   55.0439 C.3     1  ZINC001078110631    0.0000
     17 C17       -13.1795   -4.8705   56.3673 C.3     1  ZINC001078110631    0.1000
     18 H18       -13.7763   -4.5400   57.2174 H       1  ZINC001078110631    0.0700
     19 O19       -13.0608   -6.2947   56.3691 O.3     1  ZINC001078110631   -0.5500
     20 C20       -10.8597   -2.8568   59.8290 C.ar    1  ZINC001078110631   -0.1900
     21 C21        -9.6413   -2.7457   60.5032 C.ar    1  ZINC001078110631   -0.0300
     22 C22        -9.5360   -1.9184   61.6000 C.ar    1  ZINC001078110631   -0.1700
     23 C23       -10.6364   -1.1954   62.0366 C.ar    1  ZINC001078110631    0.1600
     24 F24       -10.5257   -0.3863   63.1127 F       1  ZINC001078110631   -0.1200
     25 C25       -11.8484   -1.2993   61.3736 C.ar    1  ZINC001078110631   -0.2000
     26 C26       -11.9658   -2.1213   60.2693 C.ar    1  ZINC001078110631    0.2000
     27 F27       -13.1477   -2.2226   59.6228 F       1  ZINC001078110631   -0.1000
     28 H28       -12.0857   -2.4580   57.5624 H       1  ZINC001078110631    0.4000
     29 H29       -11.9841   -2.3530   55.2845 H       1  ZINC001078110631    0.0500
     30 H30       -10.6858   -3.4342   54.6910 H       1  ZINC001078110631    0.1000
     31 H31       -13.9237   -3.5340   52.5780 H       1  ZINC001078110631    0.0400
     32 H32       -13.3275   -2.1551   53.5326 H       1  ZINC001078110631    0.0800
     33 H33       -11.1451   -3.7041   52.3136 H       1  ZINC001078110631    0.0900
     34 H34       -12.2711   -3.0467   51.1020 H       1  ZINC001078110631    0.0800
     35 H35        -9.9421   -1.4774   53.8937 H       1  ZINC001078110631    0.0700
     36 H36        -9.2522   -2.0549   52.3476 H       1  ZINC001078110631    0.0800
     37 H37        -9.0441    0.5801   53.1910 H       1  ZINC001078110631    0.0900
     38 H38        -9.1102    0.1236   51.4559 H       1  ZINC001078110631    0.0800
     39 H39       -11.3208    1.1882   53.2430 H       1  ZINC001078110631    0.1100
     40 H40       -11.0731    1.4347   51.4857 H       1  ZINC001078110631    0.1000
     41 H41       -14.4367   -3.5080   55.2187 H       1  ZINC001078110631    0.0600
     42 H42       -14.4034   -5.1849   54.5912 H       1  ZINC001078110631    0.0900
     43 H43       -13.8673   -6.7569   56.1028 H       1  ZINC001078110631    0.3800
     44 H44        -8.7832   -3.3077   60.1655 H       1  ZINC001078110631    0.1500
     45 H45        -8.5942   -1.8328   62.1214 H       1  ZINC001078110631    0.1500
     46 H46       -12.7018   -0.7340   61.7181 H       1  ZINC001078110631    0.1600
@<TRIPOS>BOND
     1     1     2    2
     2     2     3   am
     3     2    20    1
     4     3     4    1
     5     3    28    1
     6     4     5    1
     7     4    17    1
     8     4     6    1
     9     6     7    1
    10     6    29    1
    11     6    30    1
    12     7     8    1
    13     7    16    1
    14     8     9    1
    15     8    31    1
    16     8    32    1
    17     9    10    1
    18     9    33    1
    19     9    34    1
    20    10    14   am
    21    10    11    1
    22    11    12    1
    23    11    35    1
    24    11    36    1
    25    12    13    1
    26    12    37    1
    27    12    38    1
    28    13    14    1
    29    13    39    1
    30    13    40    1
    31    14    15    2
    32    16    17    1
    33    16    41    1
    34    16    42    1
    35    17    18    1
    36    17    19    1
    37    19    43    1
    38    20    26   ar
    39    20    21   ar
    40    21    22   ar
    41    21    44    1
    42    22    23   ar
    43    22    45    1
    44    23    24    1
    45    23    25   ar
    46    25    26   ar
    47    25    46    1
    48    26    27    1
@<TRIPOS>SUBSTRUCTURE
     1 ZINC001078110631        1 TEMP              0 ****  ****    0 ROOT


##########                                Name:    ZINC000065993627
##########                DOCK_Rotatable_Bonds:                   7
##########                         Heavy_Atoms:                  28
##########                    Molecular_Weight:             382.462
##########                DOCK_Rotatable_Bonds:                   7
##########                       Formal_Charge:          -0.0200002
##########                     HBond_Acceptors:                   7
##########                        HBond_Donors:                   2
##########                         Heavy_Atoms:                  28
##########                          Grid_Score:          -33.525883
##########                     Grid_vdw_energy:          -32.845108
##########                      Grid_es_energy:           -0.680776
##########           Internal_energy_repulsive:           14.591028

@<TRIPOS>MOLECULE
ZINC000065993627
 54 56 1 0 0
SMALL
USER_CHARGES


@<TRIPOS>ATOM
      1 C1         -7.6714    2.8480   56.6107 C.3     1  ZINC000065993627   -0.1200
      2 C2         -8.4139    2.1287   55.5142 C.ar    1  ZINC000065993627   -0.0700
      3 C3         -7.9282    2.1513   54.2221 C.ar    1  ZINC000065993627   -0.1800
      4 C4         -8.6126    1.4882   53.2114 C.ar    1  ZINC000065993627    0.2000
      5 N5         -8.1204    1.5107   51.9019 N.pl3   1  ZINC000065993627   -0.6400
      6 C6         -8.2993    2.7050   51.0724 C.3     1  ZINC000065993627    0.1000
      7 C7         -7.4259    0.3400   51.3602 C.3     1  ZINC000065993627    0.0900
      8 C8         -9.7850    0.8029   53.5009 C.ar    1  ZINC000065993627   -0.1800
      9 C9        -10.2703    0.7806   54.7936 C.ar    1  ZINC000065993627   -0.0800
     10 C10        -9.5832    1.4386   55.8046 C.ar    1  ZINC000065993627    0.1100
     11 N11       -10.0760    1.4155   57.1169 N.am    1  ZINC000065993627   -0.6800
     12 C12        -9.7881    0.3772   57.9266 C.2     1  ZINC000065993627    0.7000
     13 O13        -9.1011   -0.5395   57.5190 O.2     1  ZINC000065993627   -0.5700
     14 N14       -10.2618    0.3550   59.1882 N.am    1  ZINC000065993627   -0.7400
     15 C15        -9.9475   -0.7727   60.0689 C.3     1  ZINC000065993627    0.2100
     16 H16        -8.9392   -1.1289   59.8575 H       1  ZINC000065993627    0.1000
     17 C17       -10.9491   -1.9037   59.8266 C.3     1  ZINC000065993627   -0.1600
     18 C18       -10.0316   -0.3266   61.5059 C.ar    1  ZINC000065993627   -0.1200
     19 C19       -10.7020    0.8391   61.8282 C.ar    1  ZINC000065993627   -0.0800
     20 C20       -10.7809    1.2508   63.1442 C.ar    1  ZINC000065993627   -0.1500
     21 C21       -10.1862    0.4926   64.1441 C.ar    1  ZINC000065993627    0.1800
     22 N22       -10.2646    0.9068   65.4787 N.am    1  ZINC000065993627   -0.5700
     23 C23       -11.4228    1.5635   66.1039 C.3     1  ZINC000065993627    0.0600
     24 C24       -10.9724    1.7940   67.5594 C.3     1  ZINC000065993627    0.0400
     25 O25        -9.6218    1.2490   67.6013 O.3     1  ZINC000065993627   -0.3200
     26 C26        -9.2988    0.7646   66.3967 C.2     1  ZINC000065993627    0.6400
     27 O27        -8.2245    0.2509   66.1550 O.2     1  ZINC000065993627   -0.5000
     28 C28        -9.5137   -0.6775   63.8172 C.ar    1  ZINC000065993627   -0.1500
     29 C29        -9.4432   -1.0867   62.4999 C.ar    1  ZINC000065993627   -0.0800
     30 H30        -6.9449    2.1720   57.0617 H       1  ZINC000065993627    0.0700
     31 H31        -7.1539    3.7116   56.1932 H       1  ZINC000065993627    0.0700
     32 H32        -8.3785    3.1806   57.3707 H       1  ZINC000065993627    0.0600
     33 H33        -7.0165    2.6847   53.9971 H       1  ZINC000065993627    0.1200
     34 H34        -7.4492    3.3732   51.2094 H       1  ZINC000065993627    0.0500
     35 H35        -8.3667    2.4128   50.0245 H       1  ZINC000065993627    0.0700
     36 H36        -9.2154    3.2175   51.3663 H       1  ZINC000065993627    0.0700
     37 H37        -7.4677   -0.4742   52.0837 H       1  ZINC000065993627    0.0800
     38 H38        -7.9081    0.0280   50.4338 H       1  ZINC000065993627    0.0500
     39 H39        -6.3853    0.5952   51.1601 H       1  ZINC000065993627    0.0500
     40 H40       -10.3174    0.2877   52.7152 H       1  ZINC000065993627    0.1300
     41 H41       -11.1823    0.2476   55.0189 H       1  ZINC000065993627    0.1500
     42 H42       -10.6240    2.1467   57.4421 H       1  ZINC000065993627    0.4000
     43 H43       -10.8109    1.0856   59.5130 H       1  ZINC000065993627    0.4000
     44 H44       -10.8882   -2.2264   58.7872 H       1  ZINC000065993627    0.0700
     45 H45       -10.7152   -2.7428   60.4818 H       1  ZINC000065993627    0.0700
     46 H46       -11.9574   -1.5476   60.0380 H       1  ZINC000065993627    0.0600
     47 H47       -11.1640    1.4286   61.0500 H       1  ZINC000065993627    0.1300
     48 H48       -11.3042    2.1615   63.3954 H       1  ZINC000065993627    0.1600
     49 H49       -11.6351    2.5135   65.6137 H       1  ZINC000065993627    0.1000
     50 H50       -12.2958    0.9116   66.0720 H       1  ZINC000065993627    0.1000
     51 H51       -10.9621    2.8589   67.7920 H       1  ZINC000065993627    0.1100
     52 H52       -11.6227    1.2573   68.2502 H       1  ZINC000065993627    0.1100
     53 H53        -9.0498   -1.2691   64.5925 H       1  ZINC000065993627    0.1300
     54 H54        -8.9206   -1.9968   62.2450 H       1  ZINC000065993627    0.1300
@<TRIPOS>BOND
     1     1     2    1
     2     1    30    1
     3     1    31    1
     4     1    32    1
     5     2    10   ar
     6     2     3   ar
     7     3     4   ar
     8     3    33    1
     9     4     5    1
    10     4     8   ar
    11     5     6    1
    12     5     7    1
    13     6    34    1
    14     6    35    1
    15     6    36    1
    16     7    37    1
    17     7    38    1
    18     7    39    1
    19     8     9   ar
    20     8    40    1
    21     9    10   ar
    22     9    41    1
    23    10    11    1
    24    11    12   am
    25    11    42    1
    26    12    13    2
    27    12    14   am
    28    14    15    1
    29    14    43    1
    30    15    16    1
    31    15    17    1
    32    15    18    1
    33    17    44    1
    34    17    45    1
    35    17    46    1
    36    18    29   ar
    37    18    19   ar
    38    19    20   ar
    39    19    47    1
    40    20    21   ar
    41    20    48    1
    42    21    22    1
    43    21    28   ar
    44    22    26   am
    45    22    23    1
    46    23    24    1
    47    23    49    1
    48    23    50    1
    49    24    25    1
    50    24    51    1
    51    24    52    1
    52    25    26    1
    53    26    27    2
    54    28    29   ar
    55    28    53    1
    56    29    54    1
@<TRIPOS>SUBSTRUCTURE
     1 ZINC000065993627        1 TEMP              0 ****  ****    0 ROOT


##########                                Name:    ZINC000329637067
##########                DOCK_Rotatable_Bonds:                   5
##########                         Heavy_Atoms:                  26
##########                    Molecular_Weight:             362.429
##########                DOCK_Rotatable_Bonds:                   5
##########                       Formal_Charge:           0.0199998
##########                     HBond_Acceptors:                   8
##########                        HBond_Donors:                   0
##########                         Heavy_Atoms:                  26
##########                          Grid_Score:          -33.523895
##########                     Grid_vdw_energy:          -32.891350
##########                      Grid_es_energy:           -0.632547
##########           Internal_energy_repulsive:           25.942421

@<TRIPOS>MOLECULE
ZINC000329637067
 52 54 1 0 0
SMALL
USER_CHARGES


@<TRIPOS>ATOM
      1 C1        -11.9658    0.4491   59.2225 C.3     1  ZINC000329637067   -0.1300
      2 C2        -11.1521   -0.3297   60.2238 C.2     1  ZINC000329637067    0.2200
      3 C3        -10.6663    0.2795   61.3388 C.2     1  ZINC000329637067   -0.2900
      4 C4         -9.9148   -0.4692   62.2493 C.2     1  ZINC000329637067    0.2800
      5 C5         -9.3659    0.1828   63.4923 C.3     1  ZINC000329637067   -0.1200
      6 N6         -9.6879   -1.7464   62.0184 N.2     1  ZINC000329637067   -0.5500
      7 C7        -10.1675   -2.3389   60.9221 C.2     1  ZINC000329637067    0.6400
      8 O8         -9.9433   -3.5225   60.7318 O.2     1  ZINC000329637067   -0.5300
      9 N9        -10.8997   -1.6500   60.0268 N.am    1  ZINC000329637067   -0.5000
     10 C10       -11.4154   -2.3225   58.8318 C.3     1  ZINC000329637067    0.0700
     11 C11       -12.7798   -2.8915   59.1249 C.2     1  ZINC000329637067    0.5100
     12 O12       -13.3052   -2.6847   60.1983 O.2     1  ZINC000329637067   -0.5200
     13 N13       -13.4161   -3.6300   58.1942 N.am    1  ZINC000329637067   -0.6100
     14 C14       -14.7465   -4.1914   58.4653 C.3     1  ZINC000329637067    0.1000
     15 C15       -15.6989   -3.7666   57.3433 C.3     1  ZINC000329637067   -0.1400
     16 C16       -15.1063   -4.1777   55.9935 C.3     1  ZINC000329637067   -0.1000
     17 C17       -13.7670   -3.4675   55.7849 C.3     1  ZINC000329637067   -0.1200
     18 H18       -13.9171   -2.3886   55.8245 H       1  ZINC000329637067    0.1000
     19 C19       -13.2001   -3.8473   54.4412 C.2     1  ZINC000329637067    0.5300
     20 O20       -13.6511   -4.7990   53.8399 O.2     1  ZINC000329637067   -0.5300
     21 N21       -12.1919   -3.1293   53.9078 N.am    1  ZINC000329637067   -0.6200
     22 C22       -11.6264   -3.4772   52.5946 C.3     1  ZINC000329637067    0.0800
     23 C23       -11.5931   -2.2107   51.7316 C.3     1  ZINC000329637067    0.0500
     24 O24       -10.9315   -1.1678   52.4517 O.3     1  ZINC000329637067   -0.3800
     25 C25       -11.5913   -0.7807   53.6594 C.3     1  ZINC000329637067    0.0500
     26 C26       -11.6284   -1.9706   54.6186 C.3     1  ZINC000329637067    0.0700
     27 C27       -12.7952   -3.8839   56.8871 C.3     1  ZINC000329637067    0.1200
     28 H28       -12.9287   -0.0408   59.0771 H       1  ZINC000329637067    0.0900
     29 H29       -12.1255    1.4617   59.5929 H       1  ZINC000329637067    0.1000
     30 H30       -11.4318    0.4894   58.2731 H       1  ZINC000329637067    0.0900
     31 H31       -10.8580    1.3272   61.5179 H       1  ZINC000329637067    0.1600
     32 H32       -10.0929    0.0951   64.2997 H       1  ZINC000329637067    0.1000
     33 H33        -8.4388   -0.3115   63.7828 H       1  ZINC000329637067    0.0900
     34 H34        -9.1691    1.2363   63.2933 H       1  ZINC000329637067    0.0900
     35 H35       -11.4888   -1.6053   58.0144 H       1  ZINC000329637067    0.1200
     36 H36       -10.7388   -3.1287   58.5482 H       1  ZINC000329637067    0.1300
     37 H37       -14.6841   -5.2791   58.4994 H       1  ZINC000329637067    0.0800
     38 H38       -15.1147   -3.8145   59.4195 H       1  ZINC000329637067    0.0900
     39 H39       -16.6639   -4.2545   57.4808 H       1  ZINC000329637067    0.0900
     40 H40       -15.8310   -2.6848   57.3683 H       1  ZINC000329637067    0.0700
     41 H41       -14.9516   -5.2566   55.9784 H       1  ZINC000329637067    0.0800
     42 H42       -15.7937   -3.8985   55.1950 H       1  ZINC000329637067    0.0800
     43 H43       -10.6145   -3.8620   52.7209 H       1  ZINC000329637067    0.0800
     44 H44       -12.2495   -4.2320   52.1149 H       1  ZINC000329637067    0.1000
     45 H45       -11.0527   -2.4141   50.8070 H       1  ZINC000329637067    0.1100
     46 H46       -12.6121   -1.9021   51.4983 H       1  ZINC000329637067    0.0600
     47 H47       -11.0498    0.0445   54.1218 H       1  ZINC000329637067    0.1100
     48 H48       -12.6103   -0.4670   53.4331 H       1  ZINC000329637067    0.0600
     49 H49       -12.2505   -1.7285   55.4801 H       1  ZINC000329637067    0.1000
     50 H50       -10.6171   -2.2066   54.9500 H       1  ZINC000329637067    0.0800
     51 H51       -11.8747   -3.3066   56.7999 H       1  ZINC000329637067    0.1000
     52 H52       -12.5723   -4.9469   56.7952 H       1  ZINC000329637067    0.0800
@<TRIPOS>BOND
     1     1     2    1
     2     1    28    1
     3     1    29    1
     4     1    30    1
     5     2     9    1
     6     2     3    2
     7     3     4    1
     8     3    31    1
     9     4     5    1
    10     4     6    2
    11     5    32    1
    12     5    33    1
    13     5    34    1
    14     6     7    1
    15     7     8    2
    16     7     9   am
    17     9    10    1
    18    10    11    1
    19    10    35    1
    20    10    36    1
    21    11    12    2
    22    11    13   am
    23    13    27    1
    24    13    14    1
    25    14    15    1
    26    14    37    1
    27    14    38    1
    28    15    16    1
    29    15    39    1
    30    15    40    1
    31    16    17    1
    32    16    41    1
    33    16    42    1
    34    17    18    1
    35    17    19    1
    36    17    27    1
    37    19    20    2
    38    19    21   am
    39    21    26    1
    40    21    22    1
    41    22    23    1
    42    22    43    1
    43    22    44    1
    44    23    24    1
    45    23    45    1
    46    23    46    1
    47    24    25    1
    48    25    26    1
    49    25    47    1
    50    25    48    1
    51    26    49    1
    52    26    50    1
    53    27    51    1
    54    27    52    1
@<TRIPOS>SUBSTRUCTURE
     1 ZINC000329637067        1 TEMP              0 ****  ****    0 ROOT


##########                                Name:    ZINC000425987417
##########                DOCK_Rotatable_Bonds:                   9
##########                         Heavy_Atoms:                  25
##########                    Molecular_Weight:             357.419
##########                DOCK_Rotatable_Bonds:                   9
##########                       Formal_Charge:         -0.00999992
##########                     HBond_Acceptors:                   7
##########                        HBond_Donors:                   1
##########                         Heavy_Atoms:                  25
##########                          Grid_Score:          -33.523327
##########                     Grid_vdw_energy:          -33.010963
##########                      Grid_es_energy:           -0.512362
##########           Internal_energy_repulsive:           12.206518

@<TRIPOS>MOLECULE
ZINC000425987417
 51 52 1 0 0
SMALL
USER_CHARGES


@<TRIPOS>ATOM
      1 C1        -14.4689   -1.1699   55.6481 C.3     1  ZINC000425987417   -0.1500
      2 C2        -14.5848   -2.4302   54.7883 C.3     1  ZINC000425987417    0.0400
      3 N3        -13.5257   -3.3770   55.1623 N.3     1  ZINC000425987417   -0.5300
      4 C4        -14.0225   -4.3694   56.1248 C.3     1  ZINC000425987417    0.0400
      5 C5        -12.8542   -4.9028   56.9562 C.3     1  ZINC000425987417    0.1400
      6 N6        -12.1603   -3.7835   57.5980 N.am    1  ZINC000425987417   -0.7500
      7 C7        -11.0453   -4.0073   58.3213 C.2     1  ZINC000425987417    0.7200
      8 O8        -10.6153   -5.1383   58.4411 O.2     1  ZINC000425987417   -0.5800
      9 N9        -10.4070   -2.9776   58.9118 N.am    1  ZINC000425987417   -0.6200
     10 C10        -9.1870   -3.1886   59.7084 C.3     1  ZINC000425987417    0.1300
     11 C11        -9.4961   -2.7988   61.1531 C.3     1  ZINC000425987417   -0.1000
     12 C12       -10.1961   -1.4666   61.2107 C.ar    1  ZINC000425987417   -0.0600
     13 C13       -10.1670   -0.7751   62.4154 C.ar    1  ZINC000425987417   -0.1200
     14 C14       -10.7965    0.4462   62.5391 C.ar    1  ZINC000425987417   -0.1100
     15 C15       -11.4640    0.9883   61.4569 C.ar    1  ZINC000425987417   -0.1200
     16 C16       -11.4917    0.3052   60.2581 C.ar    1  ZINC000425987417   -0.1100
     17 C17       -10.8538   -0.9209   60.1308 C.ar    1  ZINC000425987417   -0.0900
     18 C18       -10.8967   -1.6010   58.7813 C.3     1  ZINC000425987417    0.1800
     19 H19       -11.9229   -1.6144   58.4143 H       1  ZINC000425987417    0.0900
     20 C20       -10.0134   -0.8330   57.7959 C.3     1  ZINC000425987417   -0.1600
     21 C21       -12.9617   -4.0321   53.9745 C.3     1  ZINC000425987417    0.0500
     22 C22       -11.5078   -3.5923   53.7914 C.3     1  ZINC000425987417   -0.1600
     23 C23       -11.4297   -2.5360   52.6874 C.3     1  ZINC000425987417    0.4500
     24 F24       -11.7930   -3.1113   51.4650 F       1  ZINC000425987417   -0.1800
     25 F25       -12.3026   -1.4842   52.9854 F       1  ZINC000425987417   -0.1800
     26 F26       -10.1219   -2.0466   52.6019 F       1  ZINC000425987417   -0.1900
     27 H27       -13.5135   -0.6831   55.4523 H       1  ZINC000425987417    0.0500
     28 H28       -15.2819   -0.4866   55.4025 H       1  ZINC000425987417    0.0600
     29 H29       -14.5289   -1.4420   56.7018 H       1  ZINC000425987417    0.0700
     30 H30       -15.5587   -2.8921   54.9500 H       1  ZINC000425987417    0.0800
     31 H31       -14.4791   -2.1636   53.7367 H       1  ZINC000425987417    0.0400
     32 H32       -14.7538   -3.9016   56.7840 H       1  ZINC000425987417    0.0500
     33 H33       -14.4922   -5.1932   55.5875 H       1  ZINC000425987417    0.0800
     34 H34       -13.2322   -5.5821   57.7202 H       1  ZINC000425987417    0.0800
     35 H35       -12.1600   -5.4363   56.3069 H       1  ZINC000425987417    0.0700
     36 H36       -12.5034   -2.8813   57.5025 H       1  ZINC000425987417    0.3900
     37 H37        -8.8945   -4.2377   59.6640 H       1  ZINC000425987417    0.1000
     38 H38        -8.3817   -2.5639   59.3221 H       1  ZINC000425987417    0.0700
     39 H39       -10.1356   -3.5594   61.6007 H       1  ZINC000425987417    0.0800
     40 H40        -8.5642   -2.7387   61.7154 H       1  ZINC000425987417    0.0900
     41 H41        -9.6474   -1.1976   63.2627 H       1  ZINC000425987417    0.1200
     42 H42       -10.7681    0.9771   63.4791 H       1  ZINC000425987417    0.1200
     43 H43       -11.9621    1.9420   61.5492 H       1  ZINC000425987417    0.1200
     44 H44       -12.0137    0.7280   59.4124 H       1  ZINC000425987417    0.1200
     45 H45        -8.9873   -0.8180   58.1632 H       1  ZINC000425987417    0.0700
     46 H46       -10.0439   -1.3229   56.8227 H       1  ZINC000425987417    0.0600
     47 H47       -10.3799    0.1890   57.6998 H       1  ZINC000425987417    0.0700
     48 H48       -13.0005   -5.1138   54.1033 H       1  ZINC000425987417    0.0500
     49 H49       -13.5402   -3.7500   53.0949 H       1  ZINC000425987417    0.0900
     50 H50       -11.1356   -3.1703   54.7250 H       1  ZINC000425987417    0.1200
     51 H51       -10.8999   -4.4534   53.5141 H       1  ZINC000425987417    0.1100
@<TRIPOS>BOND
     1     1     2    1
     2     1    27    1
     3     1    28    1
     4     1    29    1
     5     2     3    1
     6     2    30    1
     7     2    31    1
     8     3     4    1
     9     3    21    1
    10     4     5    1
    11     4    32    1
    12     4    33    1
    13     5     6    1
    14     5    34    1
    15     5    35    1
    16     6     7   am
    17     6    36    1
    18     7     8    2
    19     7     9   am
    20     9    18    1
    21     9    10    1
    22    10    11    1
    23    10    37    1
    24    10    38    1
    25    11    12    1
    26    11    39    1
    27    11    40    1
    28    12    17   ar
    29    12    13   ar
    30    13    14   ar
    31    13    41    1
    32    14    15   ar
    33    14    42    1
    34    15    16   ar
    35    15    43    1
    36    16    17   ar
    37    16    44    1
    38    17    18    1
    39    18    19    1
    40    18    20    1
    41    20    45    1
    42    20    46    1
    43    20    47    1
    44    21    22    1
    45    21    48    1
    46    21    49    1
    47    22    23    1
    48    22    50    1
    49    22    51    1
    50    23    24    1
    51    23    25    1
    52    23    26    1
@<TRIPOS>SUBSTRUCTURE
     1 ZINC000425987417        1 TEMP              0 ****  ****    0 ROOT


##########                                Name:    ZINC001289445798
##########                DOCK_Rotatable_Bonds:                  10
##########                         Heavy_Atoms:                  25
##########                    Molecular_Weight:             352.434
##########                DOCK_Rotatable_Bonds:                  10
##########                       Formal_Charge:          0.00999932
##########                     HBond_Acceptors:                   8
##########                        HBond_Donors:                   2
##########                         Heavy_Atoms:                  25
##########                          Grid_Score:          -33.503452
##########                     Grid_vdw_energy:          -33.802090
##########                      Grid_es_energy:            0.298637
##########           Internal_energy_repulsive:           22.440105

@<TRIPOS>MOLECULE
ZINC001289445798
 53 54 1 0 0
SMALL
USER_CHARGES


@<TRIPOS>ATOM
      1 C1        -14.7970   -3.2813   59.2708 C.3     1  ZINC001289445798   -0.1500
      2 C2        -14.1366   -3.2888   57.8908 C.3     1  ZINC001289445798    0.0600
      3 O3        -13.6780   -4.6083   57.5893 O.3     1  ZINC001289445798   -0.3700
      4 C4        -12.9048   -4.6953   56.3908 C.3     1  ZINC001289445798    0.1100
      5 H5        -12.6838   -5.7408   56.1761 H       1  ZINC001289445798    0.0700
      6 C6        -11.5958   -3.9240   56.5714 C.3     1  ZINC001289445798   -0.1400
      7 C7        -10.9796   -4.2840   57.8988 C.2     1  ZINC001289445798    0.5400
      8 O8        -10.9026   -5.4464   58.2362 O.2     1  ZINC001289445798   -0.5200
      9 N9        -10.5143   -3.3143   58.7109 N.am    1  ZINC001289445798   -0.6200
     10 C10       -10.5512   -1.8714   58.4311 C.3     1  ZINC001289445798    0.1000
     11 C11        -9.9355   -1.1524   59.6499 C.3     1  ZINC001289445798    0.1400
     12 H12        -8.8812   -0.9356   59.4778 H       1  ZINC001289445798    0.1200
     13 N13       -10.6726    0.0766   59.9536 N.am    1  ZINC001289445798   -0.7200
     14 C14       -10.4634    1.1868   59.2187 C.2     1  ZINC001289445798    0.6000
     15 O15        -9.6616    1.1689   58.3043 O.2     1  ZINC001289445798   -0.5100
     16 C16       -11.2052    2.4210   59.5226 C.2     1  ZINC001289445798   -0.0500
     17 C17       -11.0494    3.6549   58.9151 C.2     1  ZINC001289445798   -0.1400
     18 C18       -11.9703    4.4958   59.5440 C.2     1  ZINC001289445798    0.0000
     19 N19       -12.6060    3.7921   60.4457 N.2     1  ZINC001289445798   -0.2700
     20 N20       -12.1897    2.5770   60.4566 N.pl3   1  ZINC001289445798   -0.3800
     21 C21       -10.1031   -2.1932   60.7884 C.3     1  ZINC001289445798    0.0700
     22 H22       -11.1048   -2.1469   61.2157 H       1  ZINC001289445798    0.0900
     23 O23        -9.1093   -2.0112   61.7991 O.3     1  ZINC001289445798   -0.3700
     24 C24        -9.4586   -1.0425   62.7899 C.3     1  ZINC001289445798    0.0300
     25 C25        -9.8900   -3.5242   60.0297 C.3     1  ZINC001289445798    0.0800
     26 C26       -13.6959   -4.0921   55.2285 C.3     1  ZINC001289445798   -0.1100
     27 C27       -12.9353   -4.3207   53.9208 C.3     1  ZINC001289445798   -0.1500
     28 C28       -15.0688   -4.7621   55.1438 C.3     1  ZINC001289445798   -0.1500
     29 H29       -14.0721   -3.5944   60.0222 H       1  ZINC001289445798    0.0600
     30 H30       -15.1468   -2.2748   59.5007 H       1  ZINC001289445798    0.0700
     31 H31       -15.6425   -3.9690   59.2728 H       1  ZINC001289445798    0.0600
     32 H32       -14.8614   -2.9756   57.1393 H       1  ZINC001289445798    0.0500
     33 H33       -13.2910   -2.6010   57.8888 H       1  ZINC001289445798    0.0500
     34 H34       -10.9066   -4.1849   55.7682 H       1  ZINC001289445798    0.1100
     35 H35       -11.7980   -2.8533   56.5432 H       1  ZINC001289445798    0.1000
     36 H36        -9.9671   -1.6521   57.5373 H       1  ZINC001289445798    0.0800
     37 H37       -11.5824   -1.5471   58.2913 H       1  ZINC001289445798    0.0800
     38 H38       -11.3112    0.0915   60.6836 H       1  ZINC001289445798    0.4000
     39 H39       -10.3618    3.9125   58.1231 H       1  ZINC001289445798    0.1700
     40 H40       -12.1291    5.5414   59.3253 H       1  ZINC001289445798    0.1900
     41 H41       -12.5193    1.8784   61.0433 H       1  ZINC001289445798    0.4400
     42 H42        -8.6533   -0.9631   63.5202 H       1  ZINC001289445798    0.0900
     43 H43        -9.6132   -0.0746   62.3131 H       1  ZINC001289445798    0.0400
     44 H44       -10.3754   -1.3508   63.2922 H       1  ZINC001289445798    0.0500
     45 H45       -10.3771   -4.3440   60.5577 H       1  ZINC001289445798    0.0900
     46 H46        -8.8255   -3.7273   59.9116 H       1  ZINC001289445798    0.0900
     47 H47       -13.8234   -3.0220   55.3923 H       1  ZINC001289445798    0.0800
     48 H48       -12.8078   -5.3908   53.7569 H       1  ZINC001289445798    0.0600
     49 H49       -13.4990   -3.8910   53.0926 H       1  ZINC001289445798    0.0600
     50 H50       -11.9573   -3.8433   53.9810 H       1  ZINC001289445798    0.0600
     51 H51       -15.6480   -4.5175   56.0342 H       1  ZINC001289445798    0.0600
     52 H52       -15.5942   -4.4035   54.2587 H       1  ZINC001289445798    0.0600
     53 H53       -14.9423   -5.8428   55.0783 H       1  ZINC001289445798    0.0500
@<TRIPOS>BOND
     1     1     2    1
     2     1    29    1
     3     1    30    1
     4     1    31    1
     5     2     3    1
     6     2    32    1
     7     2    33    1
     8     3     4    1
     9     4     5    1
    10     4     6    1
    11     4    26    1
    12     6     7    1
    13     6    34    1
    14     6    35    1
    15     7     8    2
    16     7     9   am
    17     9    25    1
    18     9    10    1
    19    10    11    1
    20    10    36    1
    21    10    37    1
    22    11    12    1
    23    11    13    1
    24    11    21    1
    25    13    14   am
    26    13    38    1
    27    14    15    2
    28    14    16    1
    29    16    20    1
    30    16    17    2
    31    17    18    1
    32    17    39    1
    33    18    19    2
    34    18    40    1
    35    19    20    1
    36    20    41    1
    37    21    22    1
    38    21    23    1
    39    21    25    1
    40    23    24    1
    41    24    42    1
    42    24    43    1
    43    24    44    1
    44    25    45    1
    45    25    46    1
    46    26    27    1
    47    26    28    1
    48    26    47    1
    49    27    48    1
    50    27    49    1
    51    27    50    1
    52    28    51    1
    53    28    52    1
    54    28    53    1
@<TRIPOS>SUBSTRUCTURE
     1 ZINC001289445798        1 TEMP              0 ****  ****    0 ROOT


##########                                Name:    ZINC000417533280
##########                DOCK_Rotatable_Bonds:                   9
##########                         Heavy_Atoms:                  26
##########                    Molecular_Weight:             367.439
##########                DOCK_Rotatable_Bonds:                   9
##########                       Formal_Charge:         -0.00999999
##########                     HBond_Acceptors:                   7
##########                        HBond_Donors:                   2
##########                         Heavy_Atoms:                  26
##########                          Grid_Score:          -33.493393
##########                     Grid_vdw_energy:          -32.197414
##########                      Grid_es_energy:           -1.295978
##########           Internal_energy_repulsive:           17.365763

@<TRIPOS>MOLECULE
ZINC000417533280
 53 54 1 0 0
SMALL
USER_CHARGES


@<TRIPOS>ATOM
      1 C1         -8.6787    0.6809   68.2216 C.3     1  ZINC000417533280   -0.1600
      2 C2         -8.4057    0.2260   66.7866 C.3     1  ZINC000417533280   -0.1200
      3 C3         -9.1953    1.1044   65.8140 C.3     1  ZINC000417533280   -0.1200
      4 C4         -8.9227    0.6490   64.3790 C.3     1  ZINC000417533280   -0.1300
      5 C5         -9.3557   -0.8094   64.2158 C.3     1  ZINC000417533280    0.1200
      6 N6         -9.0532   -1.2592   62.8548 N.am    1  ZINC000417533280   -0.7300
      7 C7         -9.9424   -1.0523   61.8634 C.2     1  ZINC000417533280    0.5200
      8 O8        -10.9924   -0.4924   62.0977 O.2     1  ZINC000417533280   -0.5400
      9 C9         -9.6320   -1.5168   60.4637 C.3     1  ZINC000417533280   -0.1100
     10 C10       -10.2760   -2.8846   60.2258 C.3     1  ZINC000417533280   -0.1300
     11 C11        -9.9296   -3.3690   58.8144 C.3     1  ZINC000417533280    0.1300
     12 N12       -10.3306   -2.3370   57.8485 N.am    1  ZINC000417533280   -0.6200
     13 C13       -11.1333   -2.6433   56.8100 C.2     1  ZINC000417533280    0.7100
     14 O14       -11.5326   -3.7826   56.6657 O.2     1  ZINC000417533280   -0.5600
     15 N15       -11.4932   -1.6866   55.9316 N.am    1  ZINC000417533280   -0.6800
     16 C16       -12.3273   -2.0049   54.8524 C.ar    1  ZINC000417533280    0.1900
     17 C17       -11.8161   -2.6869   53.7567 C.ar    1  ZINC000417533280   -0.1100
     18 C18       -12.6397   -3.0010   52.6926 C.ar    1  ZINC000417533280   -0.1100
     19 C19       -13.9744   -2.6360   52.7177 C.ar    1  ZINC000417533280    0.0500
     20 F20       -14.7779   -2.9445   51.6763 F       1  ZINC000417533280   -0.1300
     21 C21       -14.4881   -1.9545   53.8110 C.ar    1  ZINC000417533280    0.0900
     22 F22       -15.7913   -1.5990   53.8340 F       1  ZINC000417533280   -0.1200
     23 C23       -13.6676   -1.6435   54.8799 C.ar    1  ZINC000417533280   -0.1300
     24 C24       -14.2251   -0.9034   56.0684 C.3     1  ZINC000417533280   -0.1200
     25 C25        -9.8404   -0.9648   58.0365 C.3     1  ZINC000417533280    0.1100
     26 C26       -10.1877   -0.5073   59.4567 C.3     1  ZINC000417533280   -0.1200
     27 H27        -8.3706    1.7200   68.3382 H       1  ZINC000417533280    0.0500
     28 H28        -9.7441    0.5919   68.4345 H       1  ZINC000417533280    0.0500
     29 H29        -8.1163    0.0551   68.9144 H       1  ZINC000417533280    0.0500
     30 H30        -7.3404    0.3150   66.5736 H       1  ZINC000417533280    0.0600
     31 H31        -8.7139   -0.8131   66.6700 H       1  ZINC000417533280    0.0600
     32 H32       -10.2605    1.0156   66.0272 H       1  ZINC000417533280    0.0700
     33 H33        -8.8867    2.1433   65.9303 H       1  ZINC000417533280    0.0700
     34 H34        -9.4852    1.2748   63.6861 H       1  ZINC000417533280    0.0700
     35 H35        -7.8574    0.7377   64.1659 H       1  ZINC000417533280    0.0700
     36 H36        -8.8176   -1.4305   64.9319 H       1  ZINC000417533280    0.0700
     37 H37       -10.4275   -0.8924   64.3962 H       1  ZINC000417533280    0.0700
     38 H38        -8.2129   -1.7060   62.6672 H       1  ZINC000417533280    0.4000
     39 H39        -8.5523   -1.5973   60.3390 H       1  ZINC000417533280    0.1000
     40 H40        -9.8972   -3.5973   60.9583 H       1  ZINC000417533280    0.0800
     41 H41       -11.3581   -2.7996   60.3260 H       1  ZINC000417533280    0.0800
     42 H42        -8.8558   -3.5413   58.7404 H       1  ZINC000417533280    0.0700
     43 H43       -10.4655   -4.2945   58.6039 H       1  ZINC000417533280    0.1000
     44 H44       -11.1747   -0.7777   56.0468 H       1  ZINC000417533280    0.4100
     45 H45       -10.7746   -2.9718   53.7359 H       1  ZINC000417533280    0.1700
     46 H46       -12.2414   -3.5313   51.8403 H       1  ZINC000417533280    0.1500
     47 H47       -14.5995   -1.6199   56.7996 H       1  ZINC000417533280    0.0800
     48 H48       -13.4392   -0.2990   56.5214 H       1  ZINC000417533280    0.0700
     49 H49       -15.0398   -0.2561   55.7438 H       1  ZINC000417533280    0.0800
     50 H50        -8.7593   -0.9410   57.8990 H       1  ZINC000417533280    0.0800
     51 H51       -10.3175   -0.3040   57.3127 H       1  ZINC000417533280    0.0800
     52 H52       -11.2707   -0.4447   59.5640 H       1  ZINC000417533280    0.0800
     53 H53        -9.7461    0.4719   59.6416 H       1  ZINC000417533280    0.0900
@<TRIPOS>BOND
     1     1     2    1
     2     1    27    1
     3     1    28    1
     4     1    29    1
     5     2     3    1
     6     2    30    1
     7     2    31    1
     8     3     4    1
     9     3    32    1
    10     3    33    1
    11     4     5    1
    12     4    34    1
    13     4    35    1
    14     5     6    1
    15     5    36    1
    16     5    37    1
    17     6     7   am
    18     6    38    1
    19     7     8    2
    20     7     9    1
    21     9    26    1
    22     9    10    1
    23     9    39    1
    24    10    11    1
    25    10    40    1
    26    10    41    1
    27    11    12    1
    28    11    42    1
    29    11    43    1
    30    12    13   am
    31    12    25    1
    32    13    14    2
    33    13    15   am
    34    15    16    1
    35    15    44    1
    36    16    23   ar
    37    16    17   ar
    38    17    18   ar
    39    17    45    1
    40    18    19   ar
    41    18    46    1
    42    19    20    1
    43    19    21   ar
    44    21    22    1
    45    21    23   ar
    46    23    24    1
    47    24    47    1
    48    24    48    1
    49    24    49    1
    50    25    26    1
    51    25    50    1
    52    25    51    1
    53    26    52    1
    54    26    53    1
@<TRIPOS>SUBSTRUCTURE
     1 ZINC000417533280        1 TEMP              0 ****  ****    0 ROOT


##########                                Name:    ZINC000494558165
##########                DOCK_Rotatable_Bonds:                  11
##########                         Heavy_Atoms:                  28
##########                    Molecular_Weight:             409.506
##########                DOCK_Rotatable_Bonds:                  11
##########                       Formal_Charge:        -6.55651e-07
##########                     HBond_Acceptors:                   9
##########                        HBond_Donors:                   3
##########                         Heavy_Atoms:                  28
##########                          Grid_Score:          -33.453789
##########                     Grid_vdw_energy:          -30.648520
##########                      Grid_es_energy:           -2.805269
##########           Internal_energy_repulsive:           31.935642

@<TRIPOS>MOLECULE
ZINC000494558165
 55 57 1 0 0
SMALL
USER_CHARGES


@<TRIPOS>ATOM
      1 O1        -10.6828   -0.6364   57.2696 O.2     1  ZINC000494558165   -0.4400
      2 C2        -10.2156   -0.0396   58.2157 C.2     1  ZINC000494558165    0.5100
      3 C3        -10.6178   -0.4172   59.6181 C.3     1  ZINC000494558165    0.0300
      4 N4        -10.7664   -1.8759   59.7088 N.3     1  ZINC000494558165   -0.5000
      5 C5         -9.4732   -2.5491   59.5288 C.3     1  ZINC000494558165    0.0500
      6 C6         -9.7086   -4.0056   59.1236 C.3     1  ZINC000494558165   -0.1100
      7 C7        -10.6487   -4.0538   57.9175 C.3     1  ZINC000494558165    0.0800
      8 O8        -10.7658   -5.4020   57.4585 O.3     1  ZINC000494558165   -0.5700
      9 C9        -11.3891   -2.2634   60.9818 C.3     1  ZINC000494558165    0.1200
     10 H10       -10.9320   -3.1765   61.3630 H       1  ZINC000494558165    0.1000
     11 C11       -12.9084   -2.4620   60.7962 C.3     1  ZINC000494558165   -0.1200
     12 C12       -13.4705   -1.0690   61.1511 C.3     1  ZINC000494558165   -0.0900
     13 C13       -12.4526   -0.4587   62.0905 C.ar    1  ZINC000494558165   -0.0900
     14 C14       -12.5637    0.6122   62.9610 C.ar    1  ZINC000494558165   -0.1100
     15 C15       -11.4836    0.9965   63.7319 C.ar    1  ZINC000494558165   -0.1100
     16 C16       -10.2879    0.3103   63.6346 C.ar    1  ZINC000494558165   -0.1200
     17 C17       -10.1751   -0.7585   62.7667 C.ar    1  ZINC000494558165   -0.1000
     18 C18       -11.2540   -1.1461   61.9940 C.ar    1  ZINC000494558165   -0.1300
     19 N19        -9.3322    0.9580   58.0136 N.am    1  ZINC000494558165   -0.6900
     20 C20        -8.9726    1.2958   56.7593 C.2     1  ZINC000494558165    0.7000
     21 O21        -9.4436    0.6997   55.8107 O.2     1  ZINC000494558165   -0.5200
     22 N22        -8.0904    2.2945   56.5571 N.am    1  ZINC000494558165   -0.7300
     23 C23        -7.7007    2.6628   55.1938 C.3     1  ZINC000494558165    0.1700
     24 H24        -7.7145    1.7781   54.5571 H       1  ZINC000494558165    0.1200
     25 C25        -8.6806    3.7129   54.6415 C.3     1  ZINC000494558165   -0.1400
     26 C26        -8.0322    4.2930   53.3580 C.3     1  ZINC000494558165   -0.5800
     27 S27        -6.2807    4.5023   53.8557 S.o2    1  ZINC000494558165    2.4000
     28 O28        -5.4357    4.0511   52.8062 O.2     1  ZINC000494558165   -0.9300
     29 O29        -6.0985    5.8013   54.4022 O.2     1  ZINC000494558165   -0.9300
     30 C30        -6.2841    3.2707   55.2059 C.3     1  ZINC000494558165   -0.6200
     31 H31        -9.8504   -0.0860   60.3178 H       1  ZINC000494558165    0.0700
     32 H32       -11.5656    0.0607   59.8655 H       1  ZINC000494558165    0.1200
     33 H33        -8.9052   -2.0422   58.7489 H       1  ZINC000494558165    0.0900
     34 H34        -8.9141   -2.5180   60.4640 H       1  ZINC000494558165    0.0400
     35 H35        -8.7570   -4.4680   58.8612 H       1  ZINC000494558165    0.0700
     36 H36       -10.1579   -4.5463   59.9565 H       1  ZINC000494558165    0.0800
     37 H37       -11.6315   -3.6821   58.2078 H       1  ZINC000494558165    0.0500
     38 H38       -10.2464   -3.4315   57.1181 H       1  ZINC000494558165    0.0400
     39 H39       -11.1770   -6.0006   58.0969 H       1  ZINC000494558165    0.3800
     40 H40       -13.1418   -2.7224   59.7638 H       1  ZINC000494558165    0.0900
     41 H41       -13.2868   -3.2191   61.4830 H       1  ZINC000494558165    0.0800
     42 H42       -13.5683   -0.4604   60.2523 H       1  ZINC000494558165    0.0800
     43 H43       -14.4348   -1.1663   61.6498 H       1  ZINC000494558165    0.0800
     44 H44       -13.4977    1.1491   63.0374 H       1  ZINC000494558165    0.1200
     45 H45       -11.5738    1.8321   64.4102 H       1  ZINC000494558165    0.1300
     46 H46        -9.4424    0.6097   64.2363 H       1  ZINC000494558165    0.1200
     47 H47        -9.2402   -1.2940   62.6909 H       1  ZINC000494558165    0.1200
     48 H48        -8.9553    1.4330   58.7707 H       1  ZINC000494558165    0.4100
     49 H49        -7.7136    2.7694   57.3143 H       1  ZINC000494558165    0.4000
     50 H50        -9.6337    3.2429   54.3986 H       1  ZINC000494558165    0.1100
     51 H51        -8.8309    4.5054   55.3747 H       1  ZINC000494558165    0.0900
     52 H52        -8.1176    3.5896   52.5297 H       1  ZINC000494558165    0.1400
     53 H53        -8.4783    5.2532   53.0992 H       1  ZINC000494558165    0.1400
     54 H54        -6.0872    3.7563   56.1616 H       1  ZINC000494558165    0.1500
     55 H55        -5.5415    2.4964   55.0137 H       1  ZINC000494558165    0.1500
@<TRIPOS>BOND
     1     1     2    2
     2     2     3    1
     3     2    19   am
     4     3     4    1
     5     3    31    1
     6     3    32    1
     7     4     5    1
     8     4     9    1
     9     5     6    1
    10     5    33    1
    11     5    34    1
    12     6     7    1
    13     6    35    1
    14     6    36    1
    15     7     8    1
    16     7    37    1
    17     7    38    1
    18     8    39    1
    19     9    10    1
    20     9    18    1
    21     9    11    1
    22    11    12    1
    23    11    40    1
    24    11    41    1
    25    12    13    1
    26    12    42    1
    27    12    43    1
    28    13    18   ar
    29    13    14   ar
    30    14    15   ar
    31    14    44    1
    32    15    16   ar
    33    15    45    1
    34    16    17   ar
    35    16    46    1
    36    17    18   ar
    37    17    47    1
    38    19    20   am
    39    19    48    1
    40    20    21    2
    41    20    22   am
    42    22    23    1
    43    22    49    1
    44    23    24    1
    45    23    30    1
    46    23    25    1
    47    25    26    1
    48    25    50    1
    49    25    51    1
    50    26    27    1
    51    26    52    1
    52    26    53    1
    53    27    28    2
    54    27    29    2
    55    27    30    1
    56    30    54    1
    57    30    55    1
@<TRIPOS>SUBSTRUCTURE
     1 ZINC000494558165        1 TEMP              0 ****  ****    0 ROOT


##########                                Name:    ZINC000771225867
##########                DOCK_Rotatable_Bonds:                   9
##########                         Heavy_Atoms:                  23
##########                    Molecular_Weight:             355.802
##########                DOCK_Rotatable_Bonds:                   9
##########                       Formal_Charge:        -3.12924e-07
##########                     HBond_Acceptors:                   9
##########                        HBond_Donors:                   3
##########                         Heavy_Atoms:                  23
##########                          Grid_Score:          -33.436935
##########                     Grid_vdw_energy:          -31.443197
##########                      Grid_es_energy:           -1.993737
##########           Internal_energy_repulsive:            8.029942

@<TRIPOS>MOLECULE
ZINC000771225867
 37 38 1 0 0
SMALL
USER_CHARGES


@<TRIPOS>ATOM
      1 C1         -6.7394    1.0449   51.0816 C.3     1  ZINC000771225867    0.0400
      2 O2         -5.7494    1.3017   50.0834 O.3     1  ZINC000771225867   -0.3600
      3 C3         -4.5861    1.8452   50.4997 C.2     1  ZINC000771225867    0.5500
      4 O4         -4.4725    2.2342   51.6472 O.2     1  ZINC000771225867   -0.4900
      5 C5         -3.4987    1.9627   49.6015 C.2     1  ZINC000771225867   -0.3400
      6 C6         -2.2744    2.5107   49.8827 C.2     1  ZINC000771225867    0.2700
      7 Cl7        -1.8647    3.1635   51.4382 Cl      1  ZINC000771225867    0.0400
      8 N8         -1.4416    2.4971   48.8727 N.2     1  ZINC000771225867   -0.5500
      9 C9         -1.8663    1.9791   47.7557 C.2     1  ZINC000771225867    0.3400
     10 N10        -1.1207    1.8855   46.6008 N.pl3   1  ZINC000771225867   -0.6700
     11 C11        -1.3370    0.7686   45.6778 C.3     1  ZINC000771225867    0.1700
     12 C12        -0.1003    0.5609   44.8420 C.ar    1  ZINC000771225867   -0.0800
     13 C13         1.0929    0.2145   45.4483 C.ar    1  ZINC000771225867   -0.1300
     14 C14         2.2294    0.0233   44.6842 C.ar    1  ZINC000771225867   -0.0800
     15 C15         2.1751    0.1779   43.3127 C.ar    1  ZINC000771225867   -0.2000
     16 C16         0.9788    0.5255   42.7017 C.ar    1  ZINC000771225867    0.1300
     17 O17         0.9226    0.6778   41.3524 O.3     1  ZINC000771225867   -0.2900
     18 C18         0.1497   -0.2777   40.6233 C.3     1  ZINC000771225867    0.0400
     19 C19        -0.0809    0.2269   39.2221 C.2     1  ZINC000771225867    0.5200
     20 N20         0.9015    0.8808   38.5711 N.am    1  ZINC000771225867   -0.8500
     21 O21        -1.1505    0.0444   38.6803 O.2     1  ZINC000771225867   -0.5200
     22 C22        -0.1612    0.7113   43.4699 C.ar    1  ZINC000771225867   -0.1200
     23 S23        -3.4738    1.4240   47.9243 S.3     1  ZINC000771225867    0.2200
     24 H24        -6.3391    0.3502   51.8200 H       1  ZINC000771225867    0.0600
     25 H25        -7.0117    1.9795   51.5720 H       1  ZINC000771225867    0.0600
     26 H26        -7.6223    0.6093   50.6139 H       1  ZINC000771225867    0.1000
     27 H27        -0.4526    2.5591   46.3989 H       1  ZINC000771225867    0.4200
     28 H28        -1.5474   -0.1373   46.2466 H       1  ZINC000771225867    0.0900
     29 H29        -2.1818    0.9934   45.0270 H       1  ZINC000771225867    0.0900
     30 H30         1.1375    0.0935   46.5205 H       1  ZINC000771225867    0.1300
     31 H31         3.1604   -0.2470   45.1601 H       1  ZINC000771225867    0.1300
     32 H32         3.0632    0.0288   42.7164 H       1  ZINC000771225867    0.1300
     33 H33         0.6864   -1.2255   40.5845 H       1  ZINC000771225867    0.1000
     34 H34        -0.8099   -0.4235   41.1194 H       1  ZINC000771225867    0.1000
     35 H35         0.7534    1.2045   37.6687 H       1  ZINC000771225867    0.4000
     36 H36         1.7565    1.0276   39.0048 H       1  ZINC000771225867    0.4100
     37 H37        -1.0936    0.9819   42.9968 H       1  ZINC000771225867    0.1400
@<TRIPOS>BOND
     1     1     2    1
     2     1    24    1
     3     1    25    1
     4     1    26    1
     5     2     3    1
     6     3     4    2
     7     3     5    1
     8     5    23    1
     9     5     6    2
    10     6     7    1
    11     6     8    1
    12     8     9    2
    13     9    10    1
    14     9    23    1
    15    10    11    1
    16    10    27    1
    17    11    12    1
    18    11    28    1
    19    11    29    1
    20    12    22   ar
    21    12    13   ar
    22    13    14   ar
    23    13    30    1
    24    14    15   ar
    25    14    31    1
    26    15    16   ar
    27    15    32    1
    28    16    17    1
    29    16    22   ar
    30    17    18    1
    31    18    19    1
    32    18    33    1
    33    18    34    1
    34    19    20   am
    35    19    21    2
    36    20    35    1
    37    20    36    1
    38    22    37    1
@<TRIPOS>SUBSTRUCTURE
     1 ZINC000771225867        1 TEMP              0 ****  ****    0 ROOT


##########                                Name:    ZINC000821214121
##########                DOCK_Rotatable_Bonds:                  10
##########                         Heavy_Atoms:                  23
##########                    Molecular_Weight:             338.434
##########                DOCK_Rotatable_Bonds:                  10
##########                       Formal_Charge:          0.00999954
##########                     HBond_Acceptors:                   9
##########                        HBond_Donors:                   3
##########                         Heavy_Atoms:                  23
##########                          Grid_Score:          -33.426849
##########                     Grid_vdw_energy:          -31.520557
##########                      Grid_es_energy:           -1.906293
##########           Internal_energy_repulsive:           12.115337

@<TRIPOS>MOLECULE
ZINC000821214121
 45 46 1 0 0
SMALL
USER_CHARGES


@<TRIPOS>ATOM
      1 C1         -9.6010   -3.5737   59.9244 C.3     1  ZINC000821214121   -0.1500
      2 C2         -9.5575   -2.1525   60.4892 C.3     1  ZINC000821214121    0.0500
      3 N3        -10.7933   -1.4445   60.1291 N.3     1  ZINC000821214121   -0.5200
      4 C4        -11.4999   -0.9756   61.3286 C.3     1  ZINC000821214121    0.0600
      5 C5        -10.6825    0.1279   62.0034 C.3     1  ZINC000821214121   -0.1200
      6 C6        -11.4307    0.6343   63.2381 C.3     1  ZINC000821214121    0.0800
      7 O7        -10.6382    1.6189   63.9048 O.3     1  ZINC000821214121   -0.5700
      8 C8        -10.5140   -0.3303   59.2135 C.3     1  ZINC000821214121    0.0400
      9 C9        -10.4658   -0.8437   57.7975 C.2     1  ZINC000821214121    0.5000
     10 O10        -9.3965   -1.0275   57.2550 O.2     1  ZINC000821214121   -0.4800
     11 N11       -11.6107   -1.0987   57.1337 N.am    1  ZINC000821214121   -0.6300
     12 C12       -11.5661   -1.5750   55.8247 C.2     1  ZINC000821214121    0.0800
     13 C13       -12.1909   -2.6993   55.3736 C.2     1  ZINC000821214121   -0.1000
     14 C14       -13.0135   -3.5708   56.2464 C.2     1  ZINC000821214121    0.2900
     15 N15       -14.2963   -3.4166   56.5201 N.2     1  ZINC000821214121   -0.3300
     16 N16       -14.6358   -4.4731   57.3811 N.pl3   1  ZINC000821214121   -0.2900
     17 N17       -13.5684   -5.1727   57.5638 N.2     1  ZINC000821214121    0.0200
     18 N18       -12.5950   -4.6617   56.8974 N.2     1  ZINC000821214121   -0.2900
     19 C19       -11.9877   -2.9573   54.0180 C.2     1  ZINC000821214121   -0.0500
     20 C20       -12.5911   -4.1502   53.3222 C.3     1  ZINC000821214121   -0.1000
     21 C21       -11.2233   -2.0737   53.3852 C.2     1  ZINC000821214121   -0.2400
     22 C22       -10.8616   -2.1376   51.9237 C.3     1  ZINC000821214121   -0.0800
     23 S23       -10.7010   -0.8153   54.4955 S.3     1  ZINC000821214121    0.2600
     24 H24       -10.5095   -4.0718   60.2633 H       1  ZINC000821214121    0.0700
     25 H25        -9.5940   -3.5323   58.8352 H       1  ZINC000821214121    0.0500
     26 H26        -8.7305   -4.1298   60.2725 H       1  ZINC000821214121    0.0600
     27 H27        -9.4664   -2.1955   61.5746 H       1  ZINC000821214121    0.0900
     28 H28        -8.7007   -1.6224   60.0735 H       1  ZINC000821214121    0.0400
     29 H29       -12.4762   -0.5826   61.0448 H       1  ZINC000821214121    0.0400
     30 H30       -11.6301   -1.8067   62.0218 H       1  ZINC000821214121    0.0800
     31 H31        -9.7132   -0.2699   62.3037 H       1  ZINC000821214121    0.0800
     32 H32       -10.5365    0.9511   61.3041 H       1  ZINC000821214121    0.0700
     33 H33       -12.3786    1.0769   62.9324 H       1  ZINC000821214121    0.0400
     34 H34       -11.6203   -0.1988   63.9150 H       1  ZINC000821214121    0.0500
     35 H35       -10.4058    2.3773   63.3516 H       1  ZINC000821214121    0.3800
     36 H36       -11.3009    0.4187   59.3019 H       1  ZINC000821214121    0.0700
     37 H37        -9.5545    0.1189   59.4699 H       1  ZINC000821214121    0.1200
     38 H38       -12.4659   -0.9506   57.5671 H       1  ZINC000821214121    0.4200
     39 H39       -15.5094   -4.6441   57.7663 H       1  ZINC000821214121    0.4700
     40 H40       -13.5696   -3.8818   52.9238 H       1  ZINC000821214121    0.0700
     41 H41       -11.9397   -4.4626   52.5061 H       1  ZINC000821214121    0.0700
     42 H42       -12.7005   -4.9688   54.0335 H       1  ZINC000821214121    0.0900
     43 H43       -11.6075   -1.5975   51.3408 H       1  ZINC000821214121    0.0700
     44 H44        -9.8826   -1.6831   51.7715 H       1  ZINC000821214121    0.0700
     45 H45       -10.8329   -3.1786   51.6018 H       1  ZINC000821214121    0.0800
@<TRIPOS>BOND
     1     1     2    1
     2     1    24    1
     3     1    25    1
     4     1    26    1
     5     2     3    1
     6     2    27    1
     7     2    28    1
     8     3     4    1
     9     3     8    1
    10     4     5    1
    11     4    29    1
    12     4    30    1
    13     5     6    1
    14     5    31    1
    15     5    32    1
    16     6     7    1
    17     6    33    1
    18     6    34    1
    19     7    35    1
    20     8     9    1
    21     8    36    1
    22     8    37    1
    23     9    10    2
    24     9    11   am
    25    11    12    1
    26    11    38    1
    27    12    23    1
    28    12    13    2
    29    13    14    1
    30    13    19    1
    31    14    18    1
    32    14    15    2
    33    15    16    1
    34    16    17    1
    35    16    39    1
    36    17    18    2
    37    19    20    1
    38    19    21    2
    39    20    40    1
    40    20    41    1
    41    20    42    1
    42    21    22    1
    43    21    23    1
    44    22    43    1
    45    22    44    1
    46    22    45    1
@<TRIPOS>SUBSTRUCTURE
     1 ZINC000821214121        1 TEMP              0 ****  ****    0 ROOT


##########                                Name:    ZINC000464706598
##########                DOCK_Rotatable_Bonds:                   4
##########                         Heavy_Atoms:                  26
##########                    Molecular_Weight:             412.286
##########                DOCK_Rotatable_Bonds:                   4
##########                       Formal_Charge:           0.0100001
##########                     HBond_Acceptors:                   5
##########                        HBond_Donors:                   0
##########                         Heavy_Atoms:                  26
##########                          Grid_Score:          -33.415688
##########                     Grid_vdw_energy:          -33.165081
##########                      Grid_es_energy:           -0.250608
##########           Internal_energy_repulsive:           57.382549

@<TRIPOS>MOLECULE
ZINC000464706598
 44 47 1 0 0
SMALL
USER_CHARGES


@<TRIPOS>ATOM
      1 O1        -11.7738   -2.3608   55.3543 O.2     1  ZINC000464706598   -0.5000
      2 C2        -12.2059   -2.9354   56.3352 C.2     1  ZINC000464706598    0.5900
      3 C3        -11.4545   -2.8967   57.6028 C.2     1  ZINC000464706598   -0.2800
      4 C4        -11.4720   -1.8782   58.5350 C.2     1  ZINC000464706598    0.1300
      5 N5        -10.6525   -2.2386   59.5392 N.pl3   1  ZINC000464706598   -0.3100
      6 C6        -10.3856   -1.4840   60.6899 C.ar    1  ZINC000464706598    0.1700
      7 C7         -9.6264   -2.0277   61.7175 C.ar    1  ZINC000464706598   -0.1300
      8 C8         -9.3645   -1.2819   62.8500 C.ar    1  ZINC000464706598   -0.0600
      9 C9         -9.8585    0.0058   62.9614 C.ar    1  ZINC000464706598   -0.1000
     10 Br10       -9.4985    1.0238   64.5138 Br      1  ZINC000464706598   -0.0400
     11 C11       -10.6149    0.5501   61.9387 C.ar    1  ZINC000464706598   -0.0700
     12 C12       -10.8753   -0.1896   60.8018 C.ar    1  ZINC000464706598   -0.1100
     13 N13       -10.1121   -3.4945   59.2410 N.2     1  ZINC000464706598   -0.2800
     14 C14       -10.5863   -3.8976   58.0943 C.2     1  ZINC000464706598    0.0700
     15 N15       -13.3747   -3.6028   56.2648 N.am    1  ZINC000464706598   -0.6100
     16 C16       -13.9207   -4.3003   57.4399 C.3     1  ZINC000464706598    0.0400
     17 C17       -14.2793   -5.7328   57.0284 C.3     1  ZINC000464706598    0.0500
     18 O18       -15.1140   -5.6944   55.8684 O.3     1  ZINC000464706598   -0.3700
     19 C19       -14.4905   -5.1193   54.7176 C.3     1  ZINC000464706598    0.0500
     20 C20       -14.1454   -3.6506   55.0121 C.3     1  ZINC000464706598    0.1600
     21 H21       -15.0631   -3.0718   55.1171 H       1  ZINC000464706598    0.0900
     22 C22       -13.3168   -3.0882   53.8861 C.ar    1  ZINC000464706598   -0.0500
     23 C23       -12.3155   -3.8522   53.3163 C.ar    1  ZINC000464706598   -0.1000
     24 C24       -11.5554   -3.3364   52.2835 C.ar    1  ZINC000464706598   -0.1100
     25 C25       -11.7967   -2.0566   51.8200 C.ar    1  ZINC000464706598   -0.1200
     26 C26       -12.7986   -1.2929   52.3891 C.ar    1  ZINC000464706598   -0.1100
     27 C27       -13.5617   -1.8103   53.4191 C.ar    1  ZINC000464706598   -0.1000
     28 H28       -12.0385   -0.9611   58.4697 H       1  ZINC000464706598    0.1900
     29 H29        -9.2412   -3.0330   61.6314 H       1  ZINC000464706598    0.1400
     30 H30        -8.7741   -1.7043   63.6496 H       1  ZINC000464706598    0.1500
     31 H31       -10.9990    1.5554   62.0279 H       1  ZINC000464706598    0.1500
     32 H32       -11.4654    0.2358   60.0036 H       1  ZINC000464706598    0.1500
     33 H33       -10.3513   -4.8304   57.6033 H       1  ZINC000464706598    0.2100
     34 H34       -13.1739   -4.3224   58.2335 H       1  ZINC000464706598    0.1200
     35 H35       -14.8146   -3.7844   57.7904 H       1  ZINC000464706598    0.0800
     36 H36       -13.3676   -6.2859   56.8028 H       1  ZINC000464706598    0.0600
     37 H37       -14.8113   -6.2234   57.8435 H       1  ZINC000464706598    0.1100
     38 H38       -13.5795   -5.6701   54.4835 H       1  ZINC000464706598    0.0600
     39 H39       -15.1743   -5.1684   53.8702 H       1  ZINC000464706598    0.1100
     40 H40       -12.1269   -4.8521   53.6785 H       1  ZINC000464706598    0.1100
     41 H41       -10.7726   -3.9330   51.8388 H       1  ZINC000464706598    0.1200
     42 H42       -11.2024   -1.6533   51.0134 H       1  ZINC000464706598    0.1200
     43 H43       -12.9870   -0.2929   52.0272 H       1  ZINC000464706598    0.1200
     44 H44       -14.3444   -1.2137   53.8637 H       1  ZINC000464706598    0.1100
@<TRIPOS>BOND
     1     1     2    2
     2     2     3    1
     3     2    15   am
     4     3    14    1
     5     3     4    2
     6     4     5    1
     7     4    28    1
     8     5     6    1
     9     5    13    1
    10     6    12   ar
    11     6     7   ar
    12     7     8   ar
    13     7    29    1
    14     8     9   ar
    15     8    30    1
    16     9    10    1
    17     9    11   ar
    18    11    12   ar
    19    11    31    1
    20    12    32    1
    21    13    14    2
    22    14    33    1
    23    15    20    1
    24    15    16    1
    25    16    17    1
    26    16    34    1
    27    16    35    1
    28    17    18    1
    29    17    36    1
    30    17    37    1
    31    18    19    1
    32    19    20    1
    33    19    38    1
    34    19    39    1
    35    20    21    1
    36    20    22    1
    37    22    27   ar
    38    22    23   ar
    39    23    24   ar
    40    23    40    1
    41    24    25   ar
    42    24    41    1
    43    25    26   ar
    44    25    42    1
    45    26    27   ar
    46    26    43    1
    47    27    44    1
@<TRIPOS>SUBSTRUCTURE
     1 ZINC000464706598        1 TEMP              0 ****  ****    0 ROOT


##########                                Name:    ZINC001119787528
##########                DOCK_Rotatable_Bonds:                   6
##########                         Heavy_Atoms:                  27
##########                    Molecular_Weight:             362.434
##########                DOCK_Rotatable_Bonds:                   6
##########                       Formal_Charge:          -0.0199998
##########                     HBond_Acceptors:                   7
##########                        HBond_Donors:                   1
##########                         Heavy_Atoms:                  27
##########                          Grid_Score:          -33.409309
##########                     Grid_vdw_energy:          -33.505302
##########                      Grid_es_energy:            0.095994
##########           Internal_energy_repulsive:            9.975675

@<TRIPOS>MOLECULE
ZINC001119787528
 49 52 1 0 0
SMALL
USER_CHARGES


@<TRIPOS>ATOM
      1 C1        -12.1863    1.4745   66.2003 C.3     1  ZINC001119787528   -0.1700
      2 C2        -10.9765    2.0167   65.4367 C.3     1  ZINC001119787528    0.1000
      3 N3        -10.3016    0.9152   64.7456 N.pl3   1  ZINC001119787528   -0.4500
      4 C4         -9.2761    0.1736   65.2241 C.2     1  ZINC001119787528    0.1800
      5 N5         -8.9404   -0.7118   64.3222 N.2     1  ZINC001119787528   -0.4800
      6 C6         -9.7280   -0.5674   63.2543 C.2     1  ZINC001119787528   -0.0200
      7 C7        -10.5919    0.4404   63.5023 C.2     1  ZINC001119787528   -0.0100
      8 C8        -11.6568    0.9153   62.5489 C.3     1  ZINC001119787528   -0.0600
      9 C9        -11.3214    0.4079   61.1404 C.3     1  ZINC001119787528    0.1400
     10 N10       -10.9289   -1.0070   61.2193 N.am    1  ZINC001119787528   -0.6200
     11 C11       -11.6690   -1.9629   60.6235 C.2     1  ZINC001119787528    0.7200
     12 O12       -11.3309   -3.1282   60.6984 O.2     1  ZINC001119787528   -0.5600
     13 N13       -12.7840   -1.6269   59.9450 N.am    1  ZINC001119787528   -0.6600
     14 C14       -13.5473   -2.6128   59.3306 C.ar    1  ZINC001119787528    0.4200
     15 C15       -14.8986   -2.7608   59.6439 C.ar    1  ZINC001119787528   -0.2500
     16 C16       -15.6149   -3.7555   59.0055 C.ar    1  ZINC001119787528    0.1600
     17 N17       -15.0001   -4.5301   58.1237 N.ar    1  ZINC001119787528   -0.5300
     18 C18       -13.7216   -4.3644   57.8498 C.ar    1  ZINC001119787528    0.3500
     19 C19       -13.0656   -5.2696   56.8392 C.3     1  ZINC001119787528   -0.0100
     20 C20       -12.8921   -4.5281   55.5387 C.ar    1  ZINC001119787528   -0.0800
     21 C21       -11.7814   -3.7293   55.3415 C.ar    1  ZINC001119787528   -0.1000
     22 C22       -11.6222   -3.0490   54.1487 C.ar    1  ZINC001119787528   -0.1200
     23 C23       -12.5736   -3.1680   53.1529 C.ar    1  ZINC001119787528   -0.1200
     24 C24       -13.6839   -3.9677   53.3498 C.ar    1  ZINC001119787528   -0.1200
     25 C25       -13.8409   -4.6512   54.5410 C.ar    1  ZINC001119787528   -0.1000
     26 N26       -13.0026   -3.4259   58.4310 N.ar    1  ZINC001119787528   -0.5500
     27 C27        -9.7092   -1.3579   61.9674 C.3     1  ZINC001119787528    0.2000
     28 H28       -12.6885    2.2940   66.7146 H       1  ZINC001119787528    0.0800
     29 H29       -12.8783    1.0066   65.4999 H       1  ZINC001119787528    0.0600
     30 H30       -11.8542    0.7365   66.9305 H       1  ZINC001119787528    0.0600
     31 H31       -11.3086    2.7546   64.7064 H       1  ZINC001119787528    0.0900
     32 H32       -10.2846    2.4844   66.1371 H       1  ZINC001119787528    0.1000
     33 H33        -8.8109    0.2935   66.1914 H       1  ZINC001119787528    0.2100
     34 H34       -12.6253    0.5222   62.8578 H       1  ZINC001119787528    0.0800
     35 H35       -11.6862    2.0048   62.5474 H       1  ZINC001119787528    0.0900
     36 H36       -12.1970    0.5079   60.4990 H       1  ZINC001119787528    0.1100
     37 H37       -10.4983    0.9920   60.7290 H       1  ZINC001119787528    0.0800
     38 H38       -13.0537   -0.6971   59.8854 H       1  ZINC001119787528    0.4200
     39 H39       -15.3731   -2.1145   60.3675 H       1  ZINC001119787528    0.1800
     40 H40       -16.6630   -3.8999   59.2231 H       1  ZINC001119787528    0.1700
     41 H41       -12.0903   -5.5833   57.2115 H       1  ZINC001119787528    0.1000
     42 H42       -13.6917   -6.1468   56.6766 H       1  ZINC001119787528    0.1000
     43 H43       -11.0381   -3.6362   56.1196 H       1  ZINC001119787528    0.1300
     44 H44       -10.7548   -2.4242   53.9949 H       1  ZINC001119787528    0.1200
     45 H45       -12.4496   -2.6361   52.2213 H       1  ZINC001119787528    0.1200
     46 H46       -14.4274   -4.0604   52.5719 H       1  ZINC001119787528    0.1200
     47 H47       -14.7083   -5.2760   54.6948 H       1  ZINC001119787528    0.1200
     48 H48        -8.8273   -1.0891   61.3860 H       1  ZINC001119787528    0.0900
     49 H49        -9.7009   -2.4262   62.1832 H       1  ZINC001119787528    0.0900
@<TRIPOS>BOND
     1     1     2    1
     2     1    28    1
     3     1    29    1
     4     1    30    1
     5     2     3    1
     6     2    31    1
     7     2    32    1
     8     3     7    1
     9     3     4    1
    10     4     5    2
    11     4    33    1
    12     5     6    1
    13     6    27    1
    14     6     7    2
    15     7     8    1
    16     8     9    1
    17     8    34    1
    18     8    35    1
    19     9    10    1
    20     9    36    1
    21     9    37    1
    22    10    11   am
    23    10    27    1
    24    11    12    2
    25    11    13   am
    26    13    14    1
    27    13    38    1
    28    14    26   ar
    29    14    15   ar
    30    15    16   ar
    31    15    39    1
    32    16    17   ar
    33    16    40    1
    34    17    18   ar
    35    18    19    1
    36    18    26   ar
    37    19    20    1
    38    19    41    1
    39    19    42    1
    40    20    25   ar
    41    20    21   ar
    42    21    22   ar
    43    21    43    1
    44    22    23   ar
    45    22    44    1
    46    23    24   ar
    47    23    45    1
    48    24    25   ar
    49    24    46    1
    50    25    47    1
    51    27    48    1
    52    27    49    1
@<TRIPOS>SUBSTRUCTURE
     1 ZINC001119787528        1 TEMP              0 ****  ****    0 ROOT


##########                                Name:    ZINC000919225759
##########                DOCK_Rotatable_Bonds:                   4
##########                         Heavy_Atoms:                  27
##########                    Molecular_Weight:             375.295
##########                DOCK_Rotatable_Bonds:                   4
##########                       Formal_Charge:                0.04
##########                     HBond_Acceptors:                  11
##########                        HBond_Donors:                   0
##########                         Heavy_Atoms:                  27
##########                          Grid_Score:          -33.391632
##########                     Grid_vdw_energy:          -33.828712
##########                      Grid_es_energy:            0.437079
##########           Internal_energy_repulsive:            6.920246

@<TRIPOS>MOLECULE
ZINC000919225759
 40 41 1 0 0
SMALL
USER_CHARGES


@<TRIPOS>ATOM
      1 C1        -13.9020   -3.0947   57.7696 C.3     1  ZINC000919225759   -0.1500
      2 C2        -13.2881   -2.9244   56.4038 C.ar    1  ZINC000919225759    0.0900
      3 C3        -12.7591   -1.6896   56.0235 C.ar    1  ZINC000919225759   -0.1200
      4 C4        -12.7990   -0.5459   56.9578 C.2     1  ZINC000919225759    0.5200
      5 O5        -13.4490    0.4421   56.6810 O.2     1  ZINC000919225759   -0.4700
      6 O6        -12.1145   -0.5990   58.1169 O.3     1  ZINC000919225759   -0.3400
      7 C7        -10.6821   -0.8190   58.0270 C.3     1  ZINC000919225759    0.1400
      8 H8        -10.4759   -1.5583   57.2529 H       1  ZINC000919225759    0.1100
      9 C9         -9.9851    0.4965   57.6741 C.3     1  ZINC000919225759   -0.1700
     10 C10       -10.1669   -1.3211   59.3512 C.ar    1  ZINC000919225759   -0.1000
     11 C11        -9.6464   -2.5976   59.4510 C.ar    1  ZINC000919225759   -0.0400
     12 C12        -9.1738   -3.0583   60.6659 C.ar    1  ZINC000919225759   -0.1100
     13 C13        -9.2212   -2.2422   61.7803 C.ar    1  ZINC000919225759   -0.0500
     14 C14        -9.7409   -0.9649   61.6801 C.ar    1  ZINC000919225759   -0.0400
     15 N15        -9.7922   -0.0911   62.8737 N.pl3   1  ZINC000919225759    0.0300
     16 O16        -9.3765   -0.4973   63.9441 O.2     1  ZINC000919225759   -0.1500
     17 O17       -10.2501    1.0341   62.7855 O.2     1  ZINC000919225759   -0.1500
     18 C18       -10.2095   -0.5029   60.4647 C.ar    1  ZINC000919225759   -0.0400
     19 C19       -12.1917   -1.5406   54.7563 C.ar    1  ZINC000919225759    0.0500
     20 C20       -12.1574   -2.6127   53.8893 C.ar    1  ZINC000919225759   -0.0600
     21 N21       -11.5559   -2.4568   52.5458 N.pl3   1  ZINC000919225759    0.0300
     22 O22       -11.0921   -1.3827   52.2070 O.2     1  ZINC000919225759   -0.1300
     23 O23       -11.5249   -3.4026   51.7789 O.2     1  ZINC000919225759   -0.1300
     24 C24       -12.6836   -3.8338   54.2726 C.ar    1  ZINC000919225759    0.0400
     25 C25       -13.2424   -3.9898   55.5285 C.ar    1  ZINC000919225759   -0.0500
     26 N26       -13.8023   -5.2998   55.9301 N.pl3   1  ZINC000919225759    0.0200
     27 O27       -14.3989   -5.9824   55.1166 O.2     1  ZINC000919225759   -0.1300
     28 O28       -13.6665   -5.6953   57.0740 O.2     1  ZINC000919225759   -0.1200
     29 H29       -13.1166   -3.2949   58.4984 H       1  ZINC000919225759    0.1200
     30 H30       -14.4308   -2.1827   58.0465 H       1  ZINC000919225759    0.1200
     31 H31       -14.6024   -3.9296   57.7515 H       1  ZINC000919225759    0.0900
     32 H32       -10.1913    1.2358   58.4481 H       1  ZINC000919225759    0.0700
     33 H33        -8.9098    0.3314   57.6067 H       1  ZINC000919225759    0.0900
     34 H34       -10.3578    0.8597   56.7164 H       1  ZINC000919225759    0.0700
     35 H35        -9.6094   -3.2353   58.5802 H       1  ZINC000919225759    0.1500
     36 H36        -8.7677   -4.0560   60.7441 H       1  ZINC000919225759    0.1500
     37 H37        -8.8526   -2.6023   62.7295 H       1  ZINC000919225759    0.1600
     38 H38       -10.6155    0.4949   60.3865 H       1  ZINC000919225759    0.1600
     39 H39       -11.7810   -0.5881   54.4556 H       1  ZINC000919225759    0.1900
     40 H40       -12.6544   -4.6700   53.5896 H       1  ZINC000919225759    0.1900
@<TRIPOS>BOND
     1     1     2    1
     2     1    29    1
     3     1    30    1
     4     1    31    1
     5     2    25   ar
     6     2     3   ar
     7     3     4    1
     8     3    19   ar
     9     4     5    2
    10     4     6    1
    11     6     7    1
    12     7     8    1
    13     7     9    1
    14     7    10    1
    15     9    32    1
    16     9    33    1
    17     9    34    1
    18    10    18   ar
    19    10    11   ar
    20    11    12   ar
    21    11    35    1
    22    12    13   ar
    23    12    36    1
    24    13    14   ar
    25    13    37    1
    26    14    15    1
    27    14    18   ar
    28    15    16    2
    29    15    17    2
    30    18    38    1
    31    19    20   ar
    32    19    39    1
    33    20    21    1
    34    20    24   ar
    35    21    22    2
    36    21    23    2
    37    24    25   ar
    38    24    40    1
    39    25    26    1
    40    26    27    2
    41    26    28    2
@<TRIPOS>SUBSTRUCTURE
     1 ZINC000919225759        1 TEMP              0 ****  ****    0 ROOT


##########                                Name:    ZINC000502834785
##########                DOCK_Rotatable_Bonds:                   9
##########                         Heavy_Atoms:                  26
##########                    Molecular_Weight:             356.468
##########                DOCK_Rotatable_Bonds:                   9
##########                       Formal_Charge:           0.0199998
##########                     HBond_Acceptors:                   6
##########                        HBond_Donors:                   2
##########                         Heavy_Atoms:                  26
##########                          Grid_Score:          -33.387165
##########                     Grid_vdw_energy:          -32.316189
##########                      Grid_es_energy:           -1.070976
##########           Internal_energy_repulsive:           17.661360

@<TRIPOS>MOLECULE
ZINC000502834785
 54 56 1 0 0
SMALL
USER_CHARGES


@<TRIPOS>ATOM
      1 C1        -15.1918    0.6428   64.0570 C.3     1  ZINC000502834785   -0.1800
      2 C2        -13.8995    1.4558   64.1559 C.3     1  ZINC000502834785    0.0800
      3 C3        -13.9750    2.3882   65.3667 C.3     1  ZINC000502834785   -0.1500
      4 O4        -12.7891    0.5688   64.3062 O.3     1  ZINC000502834785   -0.3800
      5 C5        -11.6285    0.9607   63.5703 C.3     1  ZINC000502834785    0.1000
      6 C6        -11.2227   -0.1543   62.6412 C.ar    1  ZINC000502834785   -0.0800
      7 C7        -12.1587   -0.7307   61.8030 C.ar    1  ZINC000502834785   -0.1000
      8 C8        -11.7864   -1.7534   60.9508 C.ar    1  ZINC000502834785   -0.1000
      9 C9        -10.4780   -2.1994   60.9364 C.ar    1  ZINC000502834785   -0.1000
     10 C10       -10.0723   -3.3148   60.0077 C.3     1  ZINC000502834785    0.1600
     11 N11       -10.6404   -3.0747   58.6788 N.am    1  ZINC000502834785   -0.7300
     12 C12       -10.9683   -4.1156   57.8880 C.2     1  ZINC000502834785    0.5100
     13 O13       -10.7944   -5.2511   58.2770 O.2     1  ZINC000502834785   -0.5200
     14 C14       -11.5510   -3.8685   56.5204 C.3     1  ZINC000502834785    0.0300
     15 N15       -12.7546   -3.0353   56.6442 N.3     1  ZINC000502834785   -0.5000
     16 C16       -13.8572   -3.7881   57.2794 C.3     1  ZINC000502834785    0.0500
     17 C17       -15.1441   -3.2452   56.6097 C.3     1  ZINC000502834785   -0.1300
     18 C18       -14.6695   -3.0282   55.1488 C.3     1  ZINC000502834785   -0.1300
     19 C19       -13.2085   -2.5630   55.3233 C.3     1  ZINC000502834785    0.1500
     20 H20       -13.1581   -1.4750   55.2810 H       1  ZINC000502834785    0.1100
     21 C21       -12.3480   -3.1583   54.2388 C.2     1  ZINC000502834785    0.0600
     22 N22       -12.4297   -4.3804   53.7786 N.2     1  ZINC000502834785   -0.2900
     23 N23       -11.4591   -4.5382   52.7809 N.pl3   1  ZINC000502834785   -0.4800
     24 C24       -10.7943   -3.3702   52.6597 C.2     1  ZINC000502834785    0.0600
     25 C25       -11.3279   -2.4980   53.5461 C.2     1  ZINC000502834785   -0.2600
     26 C26        -9.5418   -1.6221   61.7736 C.ar    1  ZINC000502834785   -0.1000
     27 C27        -9.9132   -0.5968   62.6231 C.ar    1  ZINC000502834785   -0.1000
     28 H28       -15.1381   -0.0214   63.1944 H       1  ZINC000502834785    0.0600
     29 H29       -15.3194    0.0514   64.9636 H       1  ZINC000502834785    0.0600
     30 H30       -16.0388    1.3193   63.9424 H       1  ZINC000502834785    0.0700
     31 H31       -13.7720    2.0473   63.2493 H       1  ZINC000502834785    0.0600
     32 H32       -14.1025    1.7967   66.2733 H       1  ZINC000502834785    0.0600
     33 H33       -13.0543    2.9673   65.4372 H       1  ZINC000502834785    0.0600
     34 H34       -14.8218    3.0647   65.2521 H       1  ZINC000502834785    0.0700
     35 H35       -11.8519    1.8551   62.9887 H       1  ZINC000502834785    0.0600
     36 H36       -10.8134    1.1717   64.2625 H       1  ZINC000502834785    0.0600
     37 H37       -13.1809   -0.3823   61.8142 H       1  ZINC000502834785    0.1300
     38 H38       -12.5178   -2.2043   60.2965 H       1  ZINC000502834785    0.1300
     39 H39        -8.9852   -3.3513   59.9368 H       1  ZINC000502834785    0.0800
     40 H40       -10.4433   -4.2635   60.3954 H       1  ZINC000502834785    0.0800
     41 H41       -10.7806   -2.1665   58.3681 H       1  ZINC000502834785    0.4000
     42 H42       -10.8164   -3.3556   55.8996 H       1  ZINC000502834785    0.1000
     43 H43       -11.8142   -4.8209   56.0601 H       1  ZINC000502834785    0.0800
     44 H44       -13.7494   -4.8552   57.0850 H       1  ZINC000502834785    0.0400
     45 H45       -13.8782   -3.5972   58.3524 H       1  ZINC000502834785    0.1000
     46 H46       -15.9475   -3.9806   56.6541 H       1  ZINC000502834785    0.0800
     47 H47       -15.4532   -2.3037   57.0637 H       1  ZINC000502834785    0.0800
     48 H48       -14.7124   -3.9613   54.5869 H       1  ZINC000502834785    0.0800
     49 H49       -15.2642   -2.2558   54.6611 H       1  ZINC000502834785    0.0800
     50 H50       -11.2941   -5.3447   52.2678 H       1  ZINC000502834785    0.4400
     51 H51        -9.9844   -3.1666   51.9750 H       1  ZINC000502834785    0.1800
     52 H52       -11.0168   -1.4747   53.6965 H       1  ZINC000502834785    0.1500
     53 H53        -8.5195   -1.9703   61.7621 H       1  ZINC000502834785    0.1300
     54 H54        -9.1817   -0.1457   63.2772 H       1  ZINC000502834785    0.1200
@<TRIPOS>BOND
     1     1     2    1
     2     1    28    1
     3     1    29    1
     4     1    30    1
     5     2     3    1
     6     2     4    1
     7     2    31    1
     8     3    32    1
     9     3    33    1
    10     3    34    1
    11     4     5    1
    12     5     6    1
    13     5    35    1
    14     5    36    1
    15     6    27   ar
    16     6     7   ar
    17     7     8   ar
    18     7    37    1
    19     8     9   ar
    20     8    38    1
    21     9    10    1
    22     9    26   ar
    23    10    11    1
    24    10    39    1
    25    10    40    1
    26    11    12   am
    27    11    41    1
    28    12    13    2
    29    12    14    1
    30    14    15    1
    31    14    42    1
    32    14    43    1
    33    15    19    1
    34    15    16    1
    35    16    17    1
    36    16    44    1
    37    16    45    1
    38    17    18    1
    39    17    46    1
    40    17    47    1
    41    18    19    1
    42    18    48    1
    43    18    49    1
    44    19    20    1
    45    19    21    1
    46    21    25    1
    47    21    22    2
    48    22    23    1
    49    23    24    1
    50    23    50    1
    51    24    25    2
    52    24    51    1
    53    25    52    1
    54    26    27   ar
    55    26    53    1
    56    27    54    1
@<TRIPOS>SUBSTRUCTURE
     1 ZINC000502834785        1 TEMP              0 ****  ****    0 ROOT


##########                                Name:    ZINC000022858610
##########                DOCK_Rotatable_Bonds:                   9
##########                         Heavy_Atoms:                  26
##########                    Molecular_Weight:             369.343
##########                DOCK_Rotatable_Bonds:                   9
##########                       Formal_Charge:          0.00999956
##########                     HBond_Acceptors:                   9
##########                        HBond_Donors:                   2
##########                         Heavy_Atoms:                  26
##########                          Grid_Score:          -33.379204
##########                     Grid_vdw_energy:          -32.209564
##########                      Grid_es_energy:           -1.169640
##########           Internal_energy_repulsive:           18.678934

@<TRIPOS>MOLECULE
ZINC000022858610
 44 45 1 0 0
SMALL
USER_CHARGES


@<TRIPOS>ATOM
      1 C1        -15.1308   -3.5485   55.6803 C.3     1  <0>         0.0100
      2 N2        -14.1483   -4.0956   56.6254 N.3     1  <0>        -0.5300
      3 C3        -14.6284   -5.3523   57.2154 C.3     1  <0>         0.0200
      4 C4        -12.8429   -4.2828   55.9783 C.3     1  <0>         0.1500
      5 H5        -12.9290   -5.0398   55.1988 H       1  <0>         0.1200
      6 C6        -11.8181   -4.7373   57.0195 C.3     1  <0>         0.1300
      7 N7        -11.8051   -3.7907   58.1375 N.am    1  <0>        -0.6800
      8 C8        -10.7593   -3.7659   58.9873 C.2     1  <0>         0.5100
      9 O9         -9.8278   -4.5266   58.8256 O.2     1  <0>        -0.5100
     10 C10       -10.7469   -2.8020   60.1281 C.2     1  <0>         0.5200
     11 O11       -11.7147   -2.7088   60.8546 O.2     1  <0>        -0.4900
     12 N12        -9.6608   -2.0355   60.3508 N.am    1  <0>        -0.6500
     13 C13        -9.6492   -1.1337   61.4182 C.ar    1  <0>         0.1900
     14 C14        -9.1394   -1.5207   62.6510 C.ar    1  <0>        -0.1200
     15 C15        -9.1295   -0.6267   63.7038 C.ar    1  <0>        -0.0700
     16 C16        -9.6264    0.6522   63.5316 C.ar    1  <0>        -0.1300
     17 C17       -10.1352    1.0406   62.3055 C.ar    1  <0>        -0.0500
     18 C18       -10.1425    0.1541   61.2470 C.ar    1  <0>        -0.2100
     19 C19       -10.6970    0.5782   59.9115 C.3     1  <0>         0.5100
     20 F20        -9.8061    0.2088   58.8981 F       1  <0>        -0.1700
     21 F21       -11.9303   -0.0470   59.6989 F       1  <0>        -0.1800
     22 F22       -10.8694    1.9665   59.8977 F       1  <0>        -0.1700
     23 C23       -12.3940   -2.9807   55.3667 C.2     1  <0>        -0.0500
     24 C24       -11.8661   -2.8290   54.1389 C.2     1  <0>        -0.1900
     25 C25       -11.5913   -1.4514   53.9785 C.2     1  <0>        -0.2100
     26 C26       -11.9677   -0.8437   55.1180 C.2     1  <0>        -0.0400
     27 O27       -12.4586   -1.7741   55.9531 O.3     1  <0>        -0.1700
     28 H28       -16.0263   -3.2445   56.2224 H       1  <0>         0.0700
     29 H29       -14.7035   -2.6846   55.1712 H       1  <0>         0.0700
     30 H30       -15.3919   -4.3106   54.9459 H       1  <0>         0.0500
     31 H31       -14.7977   -6.0835   56.4249 H       1  <0>         0.0300
     32 H32       -13.8820   -5.7356   57.9112 H       1  <0>         0.0700
     33 H33       -15.5620   -5.1703   57.7479 H       1  <0>         0.0800
     34 H34       -12.0871   -5.7282   57.3857 H       1  <0>         0.0900
     35 H35       -10.8289   -4.7747   56.5635 H       1  <0>         0.0800
     36 H36       -12.5491   -3.1817   58.2661 H       1  <0>         0.4200
     37 H37        -8.8874   -2.1099   59.7703 H       1  <0>         0.4300
     38 H38        -8.7514   -2.5194   62.7862 H       1  <0>         0.1500
     39 H39        -8.7336   -0.9270   64.6627 H       1  <0>         0.1400
     40 H40        -9.6174    1.3492   64.3565 H       1  <0>         0.1400
     41 H41       -10.5232    2.0400   62.1747 H       1  <0>         0.1500
     42 H42       -11.6861   -3.6097   53.4147 H       1  <0>         0.1500
     43 H43       -11.1613   -0.9779   53.1083 H       1  <0>         0.1500
     44 H44       -11.8919    0.2136   55.3247 H       1  <0>         0.2000
@<TRIPOS>BOND
     1     1     2    1
     2     1    28    1
     3     1    29    1
     4     1    30    1
     5     2     3    1
     6     2     4    1
     7     3    31    1
     8     3    32    1
     9     3    33    1
    10     4     5    1
    11     4     6    1
    12     4    23    1
    13     6     7    1
    14     6    34    1
    15     6    35    1
    16     7     8   am
    17     7    36    1
    18     8     9    2
    19     8    10    1
    20    10    11    2
    21    10    12   am
    22    12    13    1
    23    12    37    1
    24    13    18   ar
    25    13    14   ar
    26    14    15   ar
    27    14    38    1
    28    15    16   ar
    29    15    39    1
    30    16    17   ar
    31    16    40    1
    32    17    18   ar
    33    17    41    1
    34    18    19    1
    35    19    20    1
    36    19    21    1
    37    19    22    1
    38    23    27    1
    39    23    24    2
    40    24    25    1
    41    24    42    1
    42    25    26    2
    43    25    43    1
    44    26    27    1
    45    26    44    1
@<TRIPOS>SUBSTRUCTURE
     1 <0>         1 TEMP              0 ****  ****    0 ROOT


##########                                Name:    ZINC000098105561
##########                DOCK_Rotatable_Bonds:                   5
##########                         Heavy_Atoms:                  25
##########                    Molecular_Weight:             368.336
##########                DOCK_Rotatable_Bonds:                   5
##########                       Formal_Charge:         2.98023e-08
##########                     HBond_Acceptors:                   9
##########                        HBond_Donors:                   0
##########                         Heavy_Atoms:                  25
##########                          Grid_Score:          -33.377083
##########                     Grid_vdw_energy:          -32.319218
##########                      Grid_es_energy:           -1.057866
##########           Internal_energy_repulsive:           12.165970

@<TRIPOS>MOLECULE
ZINC000098105561
 36 38 1 0 0
SMALL
USER_CHARGES


@<TRIPOS>ATOM
      1 C1          1.1164    0.8062   42.1519 C.3     1  ZINC000098105561   -0.0800
      2 C2         -0.1180    0.5217   42.9680 C.2     1  ZINC000098105561    0.0900
      3 C3         -1.0003   -0.4237   42.6361 C.2     1  ZINC000098105561   -0.2700
      4 S4         -2.2807   -0.4248   43.8463 S.3     1  ZINC000098105561    0.1600
      5 C5         -1.5050    0.8484   44.6830 C.2     1  ZINC000098105561    0.2500
      6 N6         -1.9740    1.4343   45.8505 N.am    1  ZINC000098105561   -0.5200
      7 C7         -2.4727    2.8116   45.8297 C.3     1  ZINC000098105561    0.0500
      8 C8         -1.3144    3.7691   45.5427 C.3     1  ZINC000098105561    0.4400
      9 F9         -1.0754    3.8124   44.1649 F       1  ZINC000098105561   -0.1700
     10 F10        -1.6440    5.0498   45.9993 F       1  ZINC000098105561   -0.1700
     11 F11        -0.1646    3.3208   46.2015 F       1  ZINC000098105561   -0.1700
     12 C12        -1.9706    0.7362   47.0034 C.2     1  ZINC000098105561    0.5800
     13 O13        -1.5568   -0.4062   47.0207 O.2     1  ZINC000098105561   -0.4100
     14 C14        -2.4710    1.3614   48.2493 C.2     1  ZINC000098105561    0.0800
     15 C15        -1.5779    1.9395   49.0899 C.2     1  ZINC000098105561   -0.2000
     16 C16        -2.0829    2.5440   50.3342 C.2     1  ZINC000098105561    0.4200
     17 O17        -1.3916    3.2709   51.0258 O.2     1  ZINC000098105561   -0.4300
     18 C18        -3.4775    2.2168   50.6937 C.ar    1  ZINC000098105561   -0.2200
     19 C19        -3.9917    2.5076   51.9554 C.ar    1  ZINC000098105561   -0.0300
     20 C20        -5.2973    2.1785   52.2484 C.ar    1  ZINC000098105561   -0.1400
     21 C21        -6.0932    1.5614   51.2938 C.ar    1  ZINC000098105561   -0.0500
     22 C22        -5.5965    1.2708   50.0415 C.ar    1  ZINC000098105561   -0.1400
     23 C23        -4.2827    1.5971   49.7217 C.ar    1  ZINC000098105561    0.1400
     24 O24        -3.7880    1.3367   48.4954 O.3     1  ZINC000098105561   -0.2300
     25 N25        -0.4116    1.1830   44.0712 N.2     1  ZINC000098105561   -0.4600
     26 H26         1.9386    0.1856   42.5083 H       1  ZINC000098105561    0.0800
     27 H27         0.9191    0.5810   41.1038 H       1  ZINC000098105561    0.0800
     28 H28         1.3847    1.8578   42.2533 H       1  ZINC000098105561    0.0800
     29 H29        -0.9399   -1.0739   41.7759 H       1  ZINC000098105561    0.1900
     30 H30        -3.2289    2.9125   45.0511 H       1  ZINC000098105561    0.1700
     31 H31        -2.9128    3.0534   46.7971 H       1  ZINC000098105561    0.1400
     32 H32        -0.5243    1.9560   48.8534 H       1  ZINC000098105561    0.1800
     33 H33        -3.3716    2.9869   52.6985 H       1  ZINC000098105561    0.1400
     34 H34        -5.7025    2.4013   53.2245 H       1  ZINC000098105561    0.1400
     35 H35        -7.1142    1.3052   51.5352 H       1  ZINC000098105561    0.1400
     36 H36        -6.2273    0.7901   49.3084 H       1  ZINC000098105561    0.1400
@<TRIPOS>BOND
     1     1     2    1
     2     1    26    1
     3     1    27    1
     4     1    28    1
     5     2    25    1
     6     2     3    2
     7     3     4    1
     8     3    29    1
     9     4     5    1
    10     5     6    1
    11     5    25    2
    12     6     7    1
    13     6    12   am
    14     7     8    1
    15     7    30    1
    16     7    31    1
    17     8     9    1
    18     8    10    1
    19     8    11    1
    20    12    13    2
    21    12    14    1
    22    14    24    1
    23    14    15    2
    24    15    16    1
    25    15    32    1
    26    16    17    2
    27    16    18    1
    28    18    23   ar
    29    18    19   ar
    30    19    20   ar
    31    19    33    1
    32    20    21   ar
    33    20    34    1
    34    21    22   ar
    35    21    35    1
    36    22    23   ar
    37    22    36    1
    38    23    24    1
@<TRIPOS>SUBSTRUCTURE
     1 ZINC000098105561        1 TEMP              0 ****  ****    0 ROOT


##########                                Name:    ZINC000537799672
##########                DOCK_Rotatable_Bonds:                   9
##########                         Heavy_Atoms:                  29
##########                    Molecular_Weight:             401.478
##########                DOCK_Rotatable_Bonds:                   9
##########                       Formal_Charge:        -4.47035e-07
##########                     HBond_Acceptors:                   6
##########                        HBond_Donors:                   1
##########                         Heavy_Atoms:                  29
##########                          Grid_Score:          -33.372097
##########                     Grid_vdw_energy:          -32.807655
##########                      Grid_es_energy:           -0.564442
##########           Internal_energy_repulsive:           13.428877

@<TRIPOS>MOLECULE
ZINC000537799672
 57 59 1 0 0
SMALL
USER_CHARGES


@<TRIPOS>ATOM
      1 C1        -16.0169   -2.5879   56.8770 C.3     1  ZINC000537799672    0.0300
      2 O2        -14.8621   -2.5315   56.0371 O.3     1  ZINC000537799672   -0.3800
      3 C3        -14.7332   -3.6448   55.1506 C.3     1  ZINC000537799672    0.1200
      4 H4        -15.6487   -4.2359   55.1741 H       1  ZINC000537799672    0.0900
      5 C5        -14.4934   -3.1457   53.7490 C.ar    1  ZINC000537799672   -0.1300
      6 C6        -15.4279   -3.3893   52.7597 C.ar    1  ZINC000537799672   -0.0600
      7 C7        -15.2090   -2.9321   51.4740 C.ar    1  ZINC000537799672   -0.1500
      8 C8        -14.0534   -2.2297   51.1769 C.ar    1  ZINC000537799672    0.1000
      9 F9        -13.8387   -1.7819   49.9205 F       1  ZINC000537799672   -0.1400
     10 C10       -13.1184   -1.9860   52.1686 C.ar    1  ZINC000537799672   -0.1500
     11 C11       -13.3416   -2.4399   53.4547 C.ar    1  ZINC000537799672   -0.0800
     12 C12       -13.5536   -4.5139   55.5911 C.3     1  ZINC000537799672    0.1600
     13 H13       -12.8514   -4.6198   54.7642 H       1  ZINC000537799672    0.1000
     14 C14       -14.0647   -5.8950   56.0063 C.3     1  ZINC000537799672   -0.1600
     15 N15       -12.8785   -3.8814   56.7272 N.am    1  ZINC000537799672   -0.7100
     16 C16       -11.5407   -3.7191   56.7107 C.2     1  ZINC000537799672    0.5600
     17 O17       -10.8944   -4.0961   55.7528 O.2     1  ZINC000537799672   -0.5400
     18 C18       -10.8591   -3.0823   57.8579 C.ar    1  ZINC000537799672   -0.1400
     19 C19       -10.1565   -3.8630   58.7769 C.ar    1  ZINC000537799672   -0.0800
     20 C20        -9.5222   -3.2624   59.8450 C.ar    1  ZINC000537799672   -0.1300
     21 C21        -9.5820   -1.8897   60.0063 C.ar    1  ZINC000537799672   -0.0900
     22 C22       -10.2774   -1.1100   59.0989 C.ar    1  ZINC000537799672   -0.1100
     23 C23       -10.9107   -1.6972   58.0233 C.ar    1  ZINC000537799672   -0.0300
     24 C24       -11.6671   -0.8464   57.0357 C.3     1  ZINC000537799672    0.1100
     25 O25       -10.9553   -0.8074   55.7972 O.3     1  ZINC000537799672   -0.3800
     26 C26       -10.4532    0.4862   55.4560 C.3     1  ZINC000537799672    0.0900
     27 C27        -9.2146    0.7949   56.3028 C.3     1  ZINC000537799672   -0.1800
     28 C28        -8.6380    2.1472   55.8756 C.3     1  ZINC000537799672    0.0600
     29 O29        -8.3266    2.1118   54.4814 O.3     1  ZINC000537799672   -0.3800
     30 C30        -9.4550    1.8739   53.6373 C.3     1  ZINC000537799672    0.0600
     31 C31       -10.0645    0.5106   53.9746 C.3     1  ZINC000537799672   -0.1500
     32 H32       -16.0136   -3.5231   57.4368 H       1  ZINC000537799672    0.0500
     33 H33       -16.0021   -1.7483   57.5718 H       1  ZINC000537799672    0.0900
     34 H34       -16.9158   -2.5353   56.2627 H       1  ZINC000537799672    0.0400
     35 H35       -16.3292   -3.9372   52.9917 H       1  ZINC000537799672    0.1300
     36 H36       -15.9389   -3.1231   50.7013 H       1  ZINC000537799672    0.1400
     37 H37       -12.2165   -1.4384   51.9379 H       1  ZINC000537799672    0.1400
     38 H38       -12.6126   -2.2497   54.2285 H       1  ZINC000537799672    0.1300
     39 H39       -14.6477   -6.3263   55.1925 H       1  ZINC000537799672    0.0700
     40 H40       -13.2178   -6.5437   56.2300 H       1  ZINC000537799672    0.0600
     41 H41       -14.6927   -5.7989   56.8919 H       1  ZINC000537799672    0.0700
     42 H42       -13.3943   -3.5794   57.4911 H       1  ZINC000537799672    0.4000
     43 H43       -10.1096   -4.9347   58.6526 H       1  ZINC000537799672    0.1300
     44 H44        -8.9781   -3.8654   60.5570 H       1  ZINC000537799672    0.1300
     45 H45        -9.0841   -1.4247   60.8442 H       1  ZINC000537799672    0.1300
     46 H46       -10.3206   -0.0390   59.2306 H       1  ZINC000537799672    0.1400
     47 H47       -12.6571   -1.2723   56.8726 H       1  ZINC000537799672    0.0800
     48 H48       -11.7671    0.1651   57.4294 H       1  ZINC000537799672    0.0800
     49 H49       -11.2212    1.2366   55.6439 H       1  ZINC000537799672    0.0600
     50 H50        -9.4937    0.8341   57.3557 H       1  ZINC000537799672    0.0800
     51 H51        -8.4670    0.0162   56.1519 H       1  ZINC000537799672    0.0800
     52 H52        -9.3715    2.9311   56.0644 H       1  ZINC000537799672    0.0500
     53 H53        -7.7318    2.3523   56.4454 H       1  ZINC000537799672    0.1000
     54 H54       -10.1993    2.6542   53.7969 H       1  ZINC000537799672    0.0500
     55 H55        -9.1374    1.8822   52.5947 H       1  ZINC000537799672    0.1000
     56 H56        -9.3340   -0.2738   53.7768 H       1  ZINC000537799672    0.0800
     57 H57       -10.9514    0.3466   53.3626 H       1  ZINC000537799672    0.0800
@<TRIPOS>BOND
     1     1     2    1
     2     1    32    1
     3     1    33    1
     4     1    34    1
     5     2     3    1
     6     3     4    1
     7     3     5    1
     8     3    12    1
     9     5    11   ar
    10     5     6   ar
    11     6     7   ar
    12     6    35    1
    13     7     8   ar
    14     7    36    1
    15     8     9    1
    16     8    10   ar
    17    10    11   ar
    18    10    37    1
    19    11    38    1
    20    12    13    1
    21    12    14    1
    22    12    15    1
    23    14    39    1
    24    14    40    1
    25    14    41    1
    26    15    16   am
    27    15    42    1
    28    16    17    2
    29    16    18    1
    30    18    23   ar
    31    18    19   ar
    32    19    20   ar
    33    19    43    1
    34    20    21   ar
    35    20    44    1
    36    21    22   ar
    37    21    45    1
    38    22    23   ar
    39    22    46    1
    40    23    24    1
    41    24    25    1
    42    24    47    1
    43    24    48    1
    44    25    26    1
    45    26    31    1
    46    26    27    1
    47    26    49    1
    48    27    28    1
    49    27    50    1
    50    27    51    1
    51    28    29    1
    52    28    52    1
    53    28    53    1
    54    29    30    1
    55    30    31    1
    56    30    54    1
    57    30    55    1
    58    31    56    1
    59    31    57    1
@<TRIPOS>SUBSTRUCTURE
     1 ZINC000537799672        1 TEMP              0 ****  ****    0 ROOT


##########                                Name:    ZINC001085711660
##########                DOCK_Rotatable_Bonds:                   8
##########                         Heavy_Atoms:                  25
##########                    Molecular_Weight:             347.414
##########                DOCK_Rotatable_Bonds:                   8
##########                       Formal_Charge:         -0.00999993
##########                     HBond_Acceptors:                   7
##########                        HBond_Donors:                   0
##########                         Heavy_Atoms:                  25
##########                          Grid_Score:          -33.356548
##########                     Grid_vdw_energy:          -32.934582
##########                      Grid_es_energy:           -0.421967
##########           Internal_energy_repulsive:           13.868594

@<TRIPOS>MOLECULE
ZINC001085711660
 50 52 1 0 0
SMALL
USER_CHARGES


@<TRIPOS>ATOM
      1 C1        -16.1041   -1.7212   65.3704 C.3     1  ZINC001085711660    0.0300
      2 O2        -16.0934   -1.8480   63.9471 O.3     1  ZINC001085711660   -0.3800
      3 C3        -14.7940   -1.7349   63.3632 C.3     1  ZINC001085711660    0.1400
      4 C4        -14.9006   -1.8846   61.8675 C.2     1  ZINC001085711660    0.0100
      5 C5        -15.1463   -0.8848   60.9922 C.2     1  ZINC001085711660   -0.1900
      6 C6        -15.1629   -1.4539   59.7091 C.2     1  ZINC001085711660   -0.1200
      7 C7        -14.9236   -2.7887   59.8686 C.2     1  ZINC001085711660   -0.0700
      8 C8        -14.8496   -3.7851   58.7952 C.2     1  ZINC001085711660    0.6000
      9 O9        -15.8428   -4.4130   58.4782 O.2     1  ZINC001085711660   -0.5200
     10 N10       -13.6816   -4.0057   58.1598 N.am    1  ZINC001085711660   -0.6000
     11 C11       -13.6077   -5.0011   57.0874 C.3     1  ZINC001085711660    0.0700
     12 C12       -12.4860   -3.2500   58.5415 C.3     1  ZINC001085711660    0.1300
     13 C13       -12.3786   -1.9937   57.6747 C.3     1  ZINC001085711660    0.0000
     14 H14       -13.1070   -1.2301   57.9473 H       1  ZINC001085711660    0.1000
     15 C15       -12.3388   -2.2911   56.1692 C.3     1  ZINC001085711660   -0.1400
     16 C16       -11.3042   -1.1572   56.1476 C.3     1  ZINC001085711660    0.0100
     17 N17       -11.0022   -1.4773   57.5565 N.3     1  ZINC001085711660   -0.4500
     18 C18       -10.8280   -0.2527   58.3489 C.3     1  ZINC001085711660    0.1500
     19 H19       -11.7860    0.2586   58.4430 H       1  ZINC001085711660    0.1000
     20 C20        -9.8248    0.6680   57.6510 C.3     1  ZINC001085711660   -0.1900
     21 C21       -10.3127   -0.6101   59.7192 C.2     1  ZINC001085711660    0.2000
     22 N22        -9.6559   -1.6929   60.0241 N.2     1  ZINC001085711660   -0.4700
     23 C23        -9.3622   -1.6641   61.3361 C.2     1  ZINC001085711660   -0.0400
     24 C24        -9.8598   -0.5228   61.8403 C.2     1  ZINC001085711660   -0.0500
     25 C25        -9.7702   -0.0627   63.2726 C.3     1  ZINC001085711660   -0.0700
     26 O26       -10.4496    0.1360   60.8234 O.3     1  ZINC001085711660   -0.2000
     27 O27       -14.7618   -3.0293   61.1862 O.3     1  ZINC001085711660   -0.1500
     28 H28       -15.4851   -2.5034   65.8095 H       1  ZINC001085711660    0.0500
     29 H29       -15.7091   -0.7447   65.6512 H       1  ZINC001085711660    0.0500
     30 H30       -17.1263   -1.8184   65.7362 H       1  ZINC001085711660    0.0900
     31 H31       -14.3722   -0.7586   63.6016 H       1  ZINC001085711660    0.0900
     32 H32       -14.1475   -2.5170   63.7615 H       1  ZINC001085711660    0.0700
     33 H33       -15.3008    0.1563   61.2343 H       1  ZINC001085711660    0.1600
     34 H34       -15.3323   -0.9362   58.7765 H       1  ZINC001085711660    0.1600
     35 H35       -13.9332   -4.5501   56.1500 H       1  ZINC001085711660    0.0600
     36 H36       -12.5800   -5.3495   56.9854 H       1  ZINC001085711660    0.0900
     37 H37       -14.2550   -5.8442   57.3291 H       1  ZINC001085711660    0.0800
     38 H38       -12.5573   -2.9626   59.5904 H       1  ZINC001085711660    0.0900
     39 H39       -11.6018   -3.8700   58.3937 H       1  ZINC001085711660    0.0900
     40 H40       -11.9324   -3.2709   55.9184 H       1  ZINC001085711660    0.1000
     41 H41       -13.2654   -2.0598   55.6438 H       1  ZINC001085711660    0.0800
     42 H42       -10.4701   -1.3432   55.4711 H       1  ZINC001085711660    0.0900
     43 H43       -11.7451   -0.1696   56.0127 H       1  ZINC001085711660    0.0800
     44 H44        -8.9020    0.1207   57.4589 H       1  ZINC001085711660    0.0800
     45 H45       -10.2452    1.0142   56.7069 H       1  ZINC001085711660    0.0800
     46 H46        -9.6126    1.5250   58.2902 H       1  ZINC001085711660    0.0700
     47 H47        -8.8236   -2.4220   61.8854 H       1  ZINC001085711660    0.1800
     48 H48        -8.8632    0.5262   63.4089 H       1  ZINC001085711660    0.0800
     49 H49       -10.6399    0.5487   63.5130 H       1  ZINC001085711660    0.0800
     50 H50        -9.7426   -0.9303   63.9317 H       1  ZINC001085711660    0.0900
@<TRIPOS>BOND
     1     1     2    1
     2     1    28    1
     3     1    29    1
     4     1    30    1
     5     2     3    1
     6     3     4    1
     7     3    31    1
     8     3    32    1
     9     4    27    1
    10     4     5    2
    11     5     6    1
    12     5    33    1
    13     6     7    2
    14     6    34    1
    15     7     8    1
    16     7    27    1
    17     8     9    2
    18     8    10   am
    19    10    11    1
    20    10    12    1
    21    11    35    1
    22    11    36    1
    23    11    37    1
    24    12    13    1
    25    12    38    1
    26    12    39    1
    27    13    14    1
    28    13    17    1
    29    13    15    1
    30    15    16    1
    31    15    40    1
    32    15    41    1
    33    16    17    1
    34    16    42    1
    35    16    43    1
    36    17    18    1
    37    18    19    1
    38    18    20    1
    39    18    21    1
    40    20    44    1
    41    20    45    1
    42    20    46    1
    43    21    26    1
    44    21    22    2
    45    22    23    1
    46    23    24    2
    47    23    47    1
    48    24    25    1
    49    24    26    1
    50    25    48    1
    51    25    49    1
    52    25    50    1
@<TRIPOS>SUBSTRUCTURE
     1 ZINC001085711660        1 TEMP              0 ****  ****    0 ROOT


##########                                Name:    ZINC000676204775
##########                DOCK_Rotatable_Bonds:                   4
##########                         Heavy_Atoms:                  25
##########                    Molecular_Weight:             359.452
##########                DOCK_Rotatable_Bonds:                   4
##########                       Formal_Charge:          0.00999978
##########                     HBond_Acceptors:                   8
##########                        HBond_Donors:                   2
##########                         Heavy_Atoms:                  25
##########                          Grid_Score:          -33.340313
##########                     Grid_vdw_energy:          -33.443359
##########                      Grid_es_energy:            0.103045
##########           Internal_energy_repulsive:            5.859519

@<TRIPOS>MOLECULE
ZINC000676204775
 46 49 1 0 0
SMALL
USER_CHARGES


@<TRIPOS>ATOM
      1 C1        -11.9578   -2.8426   52.3404 C.3     1  ZINC000676204775   -0.1600
      2 C2        -12.9855   -2.4458   53.4022 C.3     1  ZINC000676204775    0.1600
      3 C3        -14.3965   -2.6326   52.8411 C.3     1  ZINC000676204775   -0.1600
      4 N4        -12.8150   -3.2909   54.5866 N.pl3   1  ZINC000676204775   -0.3900
      5 N5        -13.4249   -4.5328   54.7920 N.2     1  ZINC000676204775   -0.2500
      6 C6        -13.0650   -5.0231   55.9437 C.2     1  ZINC000676204775    0.0900
      7 C7        -12.1563   -4.0686   56.5702 C.ar    1  ZINC000676204775   -0.2100
      8 C8        -11.4600   -4.0409   57.7834 C.ar    1  ZINC000676204775    0.0800
      9 C9        -10.6675   -2.9706   58.0826 C.ar    1  ZINC000676204775   -0.7200
     10 S10        -9.7896   -2.9346   59.6099 S.o2    1  ZINC000676204775    2.6900
     11 O11        -9.2561   -4.2383   59.7969 O.2     1  ZINC000676204775   -0.9300
     12 O12        -8.9865   -1.7626   59.5836 O.2     1  ZINC000676204775   -0.9600
     13 N13       -10.9062   -2.7094   60.8119 N.am    1  ZINC000676204775   -1.1100
     14 C14       -11.7450   -1.5083   60.8168 C.3     1  ZINC000676204775    0.2400
     15 H15       -11.9402   -1.1919   59.7921 H       1  ZINC000676204775    0.1000
     16 C16       -11.0335   -0.3835   61.5789 C.3     1  ZINC000676204775   -0.1200
     17 C17       -11.9974    0.7856   61.7937 C.3     1  ZINC000676204775   -0.1200
     18 C18       -13.0518    0.4016   62.8393 C.3     1  ZINC000676204775   -0.0400
     19 C19       -13.6442   -0.9287   62.4445 C.2     1  ZINC000676204775   -0.2300
     20 C20       -14.7846   -1.4963   62.8785 C.2     1  ZINC000676204775    0.0600
     21 N21       -14.9145   -2.6862   62.2500 N.pl3   1  ZINC000676204775   -0.4800
     22 N22       -13.8098   -2.8505   61.4005 N.2     1  ZINC000676204775   -0.2400
     23 C23       -13.0500   -1.8013   61.5166 C.2     1  ZINC000676204775    0.0500
     24 C24       -10.5463   -1.9093   57.1943 C.ar    1  ZINC000676204775    0.0100
     25 C25       -11.2163   -1.9133   56.0035 C.ar    1  ZINC000676204775   -0.1500
     26 C26       -12.0277   -2.9942   55.6685 C.ar    1  ZINC000676204775    0.1700
     27 H27       -10.9525   -2.7095   52.7400 H       1  ZINC000676204775    0.0600
     28 H28       -12.1043   -3.8871   52.0655 H       1  ZINC000676204775    0.0700
     29 H29       -12.0847   -2.2138   51.4591 H       1  ZINC000676204775    0.0800
     30 H30       -12.8390   -1.4012   53.6770 H       1  ZINC000676204775    0.1000
     31 H31       -14.5430   -3.6772   52.5663 H       1  ZINC000676204775    0.0700
     32 H32       -15.1286   -2.3499   53.5976 H       1  ZINC000676204775    0.0600
     33 H33       -14.5234   -2.0038   51.9599 H       1  ZINC000676204775    0.0800
     34 H34       -13.3826   -5.9674   56.3606 H       1  ZINC000676204775    0.2000
     35 H35       -11.5492   -4.8618   58.4794 H       1  ZINC000676204775    0.1500
     36 H36       -11.0050   -3.3728   61.5127 H       1  ZINC000676204775    0.4200
     37 H37       -10.6963   -0.7575   62.5455 H       1  ZINC000676204775    0.0800
     38 H38       -10.1733   -0.0428   61.0028 H       1  ZINC000676204775    0.0800
     39 H39       -11.4405    1.6551   62.1428 H       1  ZINC000676204775    0.0700
     40 H40       -12.4912    1.0261   60.8522 H       1  ZINC000676204775    0.0700
     41 H41       -12.5840    0.3192   63.8203 H       1  ZINC000676204775    0.0700
     42 H42       -13.8351    1.1591   62.8671 H       1  ZINC000676204775    0.0700
     43 H43       -15.4718   -1.0770   63.5984 H       1  ZINC000676204775    0.1800
     44 H44       -15.6433   -3.3157   62.3659 H       1  ZINC000676204775    0.4400
     45 H45        -9.9150   -1.0706   57.4483 H       1  ZINC000676204775    0.1500
     46 H46       -11.1134   -1.0819   55.3218 H       1  ZINC000676204775    0.1300
@<TRIPOS>BOND
     1     1     2    1
     2     1    27    1
     3     1    28    1
     4     1    29    1
     5     2     3    1
     6     2     4    1
     7     2    30    1
     8     3    31    1
     9     3    32    1
    10     3    33    1
    11     4    26    1
    12     4     5    1
    13     5     6    2
    14     6     7    1
    15     6    34    1
    16     7    26   ar
    17     7     8   ar
    18     8     9   ar
    19     8    35    1
    20     9    10    1
    21     9    24   ar
    22    10    11    2
    23    10    12    2
    24    10    13   am
    25    13    14    1
    26    13    36    1
    27    14    15    1
    28    14    23    1
    29    14    16    1
    30    16    17    1
    31    16    37    1
    32    16    38    1
    33    17    18    1
    34    17    39    1
    35    17    40    1
    36    18    19    1
    37    18    41    1
    38    18    42    1
    39    19    23    1
    40    19    20    2
    41    20    21    1
    42    20    43    1
    43    21    22    1
    44    21    44    1
    45    22    23    2
    46    24    25   ar
    47    24    45    1
    48    25    26   ar
    49    25    46    1
@<TRIPOS>SUBSTRUCTURE
     1 ZINC000676204775        1 TEMP              0 ****  ****    0 ROOT


##########                                Name:    ZINC001085817863
##########                DOCK_Rotatable_Bonds:                   7
##########                         Heavy_Atoms:                  24
##########                    Molecular_Weight:             326.442
##########                DOCK_Rotatable_Bonds:                   7
##########                       Formal_Charge:           0.0299998
##########                     HBond_Acceptors:                   5
##########                        HBond_Donors:                   0
##########                         Heavy_Atoms:                  24
##########                          Grid_Score:          -33.340294
##########                     Grid_vdw_energy:          -31.640247
##########                      Grid_es_energy:           -1.700048
##########           Internal_energy_repulsive:           16.610975

@<TRIPOS>MOLECULE
ZINC001085817863
 50 52 1 0 0
SMALL
USER_CHARGES


@<TRIPOS>ATOM
      1 C1        -16.3090   -2.2302   49.3637 C.3     1  ZINC001085817863   -0.1400
      2 C2        -14.8101   -2.0854   49.0934 C.3     1  ZINC001085817863   -0.0700
      3 C3        -14.2297   -1.0505   50.0225 C.2     1  ZINC001085817863    0.1100
      4 C4        -13.8262   -1.2685   51.3110 C.2     1  ZINC001085817863   -0.2400
      5 C5        -13.8727   -2.5416   52.0496 C.2     1  ZINC001085817863    0.6000
      6 O6        -14.9326   -3.1186   52.2009 O.2     1  ZINC001085817863   -0.5300
      7 N7        -12.7406   -3.0675   52.5581 N.am    1  ZINC001085817863   -0.6100
      8 C8        -11.4639   -2.3726   52.3759 C.3     1  ZINC001085817863    0.0800
      9 C9        -12.7870   -4.3340   53.2929 C.3     1  ZINC001085817863    0.1300
     10 C10       -13.5748   -4.1424   54.5903 C.3     1  ZINC001085817863    0.0100
     11 H11       -14.3551   -3.3864   54.5018 H       1  ZINC001085817863    0.0800
     12 C12       -14.0663   -5.4592   55.2076 C.3     1  ZINC001085817863   -0.1400
     13 C13       -13.6928   -4.7778   56.5315 C.3     1  ZINC001085817863    0.0000
     14 N14       -12.7177   -3.9658   55.7775 N.3     1  ZINC001085817863   -0.4400
     15 C15       -12.7298   -2.5698   56.2346 C.3     1  ZINC001085817863    0.0700
     16 C16       -11.5737   -2.3386   57.1732 C.ar    1  ZINC001085817863   -0.1300
     17 C17       -10.7848   -1.2053   57.0493 C.ar    1  ZINC001085817863   -0.0700
     18 C18        -9.7321   -1.0339   57.9354 C.ar    1  ZINC001085817863   -0.1700
     19 C19        -9.5058   -1.9915   58.9057 C.ar    1  ZINC001085817863    0.1000
     20 N20       -10.2770   -3.0577   58.9940 N.ar    1  ZINC001085817863   -0.4800
     21 C21       -11.2899   -3.2509   58.1721 C.ar    1  ZINC001085817863    0.1200
     22 C22       -13.3369    0.0219   51.8082 C.2     1  ZINC001085817863   -0.1900
     23 C23       -13.4826    0.8967   50.7972 C.2     1  ZINC001085817863   -0.0200
     24 N24       -14.0150    0.2448   49.7233 N.pl3   1  ZINC001085817863   -0.4400
     25 C25       -14.3192    0.8673   48.4325 C.3     1  ZINC001085817863    0.0600
     26 H26       -16.7289   -2.9787   48.6917 H       1  ZINC001085817863    0.0600
     27 H27       -16.4635   -2.5419   50.3967 H       1  ZINC001085817863    0.0500
     28 H28       -16.8028   -1.2731   49.1954 H       1  ZINC001085817863    0.0600
     29 H29       -14.3164   -3.0424   49.2618 H       1  ZINC001085817863    0.0600
     30 H30       -14.6557   -1.7737   48.0604 H       1  ZINC001085817863    0.1100
     31 H31       -11.5294   -1.3733   52.8062 H       1  ZINC001085817863    0.0700
     32 H32       -10.6717   -2.9315   52.8739 H       1  ZINC001085817863    0.0700
     33 H33       -11.2406   -2.2959   51.3117 H       1  ZINC001085817863    0.0600
     34 H34       -13.2749   -5.0919   52.6801 H       1  ZINC001085817863    0.0800
     35 H35       -11.7722   -4.6550   53.5281 H       1  ZINC001085817863    0.1000
     36 H36       -15.1343   -5.6388   55.0839 H       1  ZINC001085817863    0.0800
     37 H37       -13.4507   -6.3245   54.9617 H       1  ZINC001085817863    0.1000
     38 H38       -14.5043   -4.1910   56.9620 H       1  ZINC001085817863    0.0700
     39 H39       -13.2315   -5.4529   57.2523 H       1  ZINC001085817863    0.0800
     40 H40       -12.6388   -1.9053   55.3754 H       1  ZINC001085817863    0.0900
     41 H41       -13.6660   -2.3657   56.7542 H       1  ZINC001085817863    0.0500
     42 H42       -10.9852   -0.4736   56.2807 H       1  ZINC001085817863    0.1300
     43 H43        -9.0968   -0.1631   57.8680 H       1  ZINC001085817863    0.1300
     44 H44        -8.6878   -1.8656   59.5994 H       1  ZINC001085817863    0.1600
     45 H45       -11.8995   -4.1363   58.2751 H       1  ZINC001085817863    0.1500
     46 H46       -12.9390    0.2284   52.7908 H       1  ZINC001085817863    0.1600
     47 H47       -13.2178    1.9432   50.8288 H       1  ZINC001085817863    0.1600
     48 H48       -13.4485    0.7963   47.7807 H       1  ZINC001085817863    0.0800
     49 H49       -15.1618    0.3527   47.9705 H       1  ZINC001085817863    0.0900
     50 H50       -14.5736    1.9160   48.5859 H       1  ZINC001085817863    0.0900
@<TRIPOS>BOND
     1     1     2    1
     2     1    26    1
     3     1    27    1
     4     1    28    1
     5     2     3    1
     6     2    29    1
     7     2    30    1
     8     3    24    1
     9     3     4    2
    10     4     5    1
    11     4    22    1
    12     5     6    2
    13     5     7   am
    14     7     8    1
    15     7     9    1
    16     8    31    1
    17     8    32    1
    18     8    33    1
    19     9    10    1
    20     9    34    1
    21     9    35    1
    22    10    11    1
    23    10    14    1
    24    10    12    1
    25    12    13    1
    26    12    36    1
    27    12    37    1
    28    13    14    1
    29    13    38    1
    30    13    39    1
    31    14    15    1
    32    15    16    1
    33    15    40    1
    34    15    41    1
    35    16    21   ar
    36    16    17   ar
    37    17    18   ar
    38    17    42    1
    39    18    19   ar
    40    18    43    1
    41    19    20   ar
    42    19    44    1
    43    20    21   ar
    44    21    45    1
    45    22    23    2
    46    22    46    1
    47    23    24    1
    48    23    47    1
    49    24    25    1
    50    25    48    1
    51    25    49    1
    52    25    50    1
@<TRIPOS>SUBSTRUCTURE
     1 ZINC001085817863        1 TEMP              0 ****  ****    0 ROOT


##########                                Name:    ZINC001000186632
##########                DOCK_Rotatable_Bonds:                   7
##########                         Heavy_Atoms:                  23
##########                    Molecular_Weight:             342.379
##########                DOCK_Rotatable_Bonds:                   7
##########                       Formal_Charge:          -0.0100001
##########                     HBond_Acceptors:                  11
##########                        HBond_Donors:                   2
##########                         Heavy_Atoms:                  23
##########                          Grid_Score:          -33.333832
##########                     Grid_vdw_energy:          -33.783764
##########                      Grid_es_energy:            0.449933
##########           Internal_energy_repulsive:            8.440826

@<TRIPOS>MOLECULE
ZINC001000186632
 41 43 1 0 0
SMALL
USER_CHARGES


@<TRIPOS>ATOM
      1 O1        -10.1364   -0.7199   60.5199 O.2     1  ZINC001000186632   -0.5200
      2 C2        -10.0108   -1.5408   59.6360 C.2     1  ZINC001000186632    0.5300
      3 C3         -9.7872   -2.9908   59.9807 C.3     1  ZINC001000186632   -0.0500
      4 C4        -10.5660   -3.8597   59.0270 C.2     1  ZINC001000186632    0.2400
      5 N5        -10.1799   -5.0223   58.5709 N.2     1  ZINC001000186632   -0.3000
      6 N6        -11.1975   -5.4822   57.7191 N.pl3   1  ZINC001000186632   -0.4800
      7 C7        -12.1517   -4.5354   57.7237 C.2     1  ZINC001000186632    0.2700
      8 N8        -11.7621   -3.5702   58.5164 N.2     1  ZINC001000186632   -0.5400
      9 N9        -10.0769   -1.1574   58.3456 N.am    1  ZINC001000186632   -0.7100
     10 C10       -10.2942    0.2521   58.0106 C.3     1  ZINC001000186632    0.1100
     11 C11        -9.3322    0.7891   56.9353 C.3     1  ZINC001000186632    0.1000
     12 N12       -10.3556    0.3747   55.9560 N.am    1  ZINC001000186632   -0.6500
     13 C13       -10.3326    0.0371   54.6514 C.2     1  ZINC001000186632    0.5100
     14 O14        -9.2838    0.0417   54.0422 O.2     1  ZINC001000186632   -0.5100
     15 C15       -11.6099   -0.3460   53.9495 C.3     1  ZINC001000186632    0.1500
     16 N16       -11.6669   -1.8022   53.7997 N.am    1  ZINC001000186632   -0.9800
     17 C17       -12.1231   -2.7647   54.8138 C.3     1  ZINC001000186632    0.0800
     18 C18       -12.7165   -4.0120   54.1313 C.3     1  ZINC001000186632   -0.1300
     19 C19       -11.6970   -4.3566   53.0074 C.3     1  ZINC001000186632   -0.6000
     20 S20       -11.2328   -2.6743   52.4432 S.o2    1  ZINC001000186632    2.5700
     21 O21       -12.0974   -2.2205   51.4108 O.2     1  ZINC001000186632   -0.9400
     22 O22        -9.8218   -2.5320   52.3544 O.2     1  ZINC001000186632   -0.9600
     23 C23       -11.4142    0.4783   56.9789 C.3     1  ZINC001000186632    0.0900
     24 H24        -8.7254   -3.2239   59.9001 H       1  ZINC001000186632    0.1300
     25 H25       -10.1239   -3.1780   61.0003 H       1  ZINC001000186632    0.1200
     26 H26       -11.2093   -6.3171   57.2254 H       1  ZINC001000186632    0.4400
     27 H27       -13.0797   -4.5674   57.1720 H       1  ZINC001000186632    0.2200
     28 H28        -9.9803   -1.8147   57.6388 H       1  ZINC001000186632    0.4100
     29 H29       -10.3724    0.8909   58.8903 H       1  ZINC001000186632    0.1200
     30 H30        -9.1795    1.8674   56.9815 H       1  ZINC001000186632    0.1000
     31 H31        -8.4002    0.2290   56.8604 H       1  ZINC001000186632    0.0900
     32 H32       -12.4631   -0.0076   54.5375 H       1  ZINC001000186632    0.1100
     33 H33       -11.6383    0.1219   52.9655 H       1  ZINC001000186632    0.1100
     34 H34       -11.2788   -3.0609   55.4364 H       1  ZINC001000186632    0.0800
     35 H35       -12.8847   -2.2977   55.4382 H       1  ZINC001000186632    0.0900
     36 H36       -12.7933   -4.8349   54.8418 H       1  ZINC001000186632    0.1100
     37 H37       -13.6928   -3.7842   53.7035 H       1  ZINC001000186632    0.1000
     38 H38       -10.8364   -4.8927   53.4076 H       1  ZINC001000186632    0.1400
     39 H39       -12.1717   -4.9214   52.2051 H       1  ZINC001000186632    0.1400
     40 H40       -12.1444   -0.3299   56.9389 H       1  ZINC001000186632    0.0900
     41 H41       -11.8731    1.4653   57.0379 H       1  ZINC001000186632    0.1100
@<TRIPOS>BOND
     1     1     2    2
     2     2     3    1
     3     2     9   am
     4     3     4    1
     5     3    24    1
     6     3    25    1
     7     4     8    1
     8     4     5    2
     9     5     6    1
    10     6     7    1
    11     6    26    1
    12     7     8    2
    13     7    27    1
    14     9    10    1
    15     9    28    1
    16    10    23    1
    17    10    11    1
    18    10    29    1
    19    11    12    1
    20    11    30    1
    21    11    31    1
    22    12    13   am
    23    12    23    1
    24    13    14    2
    25    13    15    1
    26    15    16    1
    27    15    32    1
    28    15    33    1
    29    16    20   am
    30    16    17    1
    31    17    18    1
    32    17    34    1
    33    17    35    1
    34    18    19    1
    35    18    36    1
    36    18    37    1
    37    19    20    1
    38    19    38    1
    39    19    39    1
    40    20    21    2
    41    20    22    2
    42    23    40    1
    43    23    41    1
@<TRIPOS>SUBSTRUCTURE
     1 ZINC001000186632        1 TEMP              0 ****  ****    0 ROOT


##########                                Name:    ZINC000409064708
##########                DOCK_Rotatable_Bonds:                   8
##########                         Heavy_Atoms:                  29
##########                    Molecular_Weight:             415.442
##########                DOCK_Rotatable_Bonds:                   8
##########                       Formal_Charge:                0.03
##########                     HBond_Acceptors:                   8
##########                        HBond_Donors:                   0
##########                         Heavy_Atoms:                  29
##########                          Grid_Score:          -33.298996
##########                     Grid_vdw_energy:          -33.123882
##########                      Grid_es_energy:           -0.175116
##########           Internal_energy_repulsive:           21.905870

@<TRIPOS>MOLECULE
ZINC000409064708
 47 49 1 0 0
SMALL
USER_CHARGES


@<TRIPOS>ATOM
      1 C1        -14.3126   -5.6304   55.6240 C.3     1  ZINC000409064708    0.0400
      2 O2        -14.5082   -4.7130   54.5156 O.3     1  ZINC000409064708   -0.3500
      3 C3        -15.3443   -3.6826   54.7176 C.2     1  ZINC000409064708    0.4600
      4 O4        -15.9330   -3.5792   55.7676 O.2     1  ZINC000409064708   -0.4900
      5 C5        -15.5486   -2.6547   53.6347 C.3     1  ZINC000409064708    0.1400
      6 H6        -16.0982   -3.1032   52.8071 H       1  ZINC000409064708    0.1500
      7 C7        -16.3444   -1.4745   54.1954 C.3     1  ZINC000409064708   -0.1600
      8 N8        -14.2463   -2.1829   53.1573 N.am    1  ZINC000409064708   -0.5600
      9 C9        -13.9653   -2.1900   51.8492 C.2     1  ZINC000409064708    0.5400
     10 O10       -14.6988   -2.5608   50.9526 O.2     1  ZINC000409064708   -0.4200
     11 S11       -12.3201   -1.5549   51.6726 S.3     1  ZINC000409064708   -0.0100
     12 C12       -12.0787   -1.3019   53.4127 C.2     1  ZINC000409064708   -0.2400
     13 C13       -10.9806   -0.8101   54.0404 C.2     1  ZINC000409064708    0.0900
     14 C14        -9.8030   -0.4143   53.2575 C.ar    1  ZINC000409064708   -0.1400
     15 C15        -9.2935   -1.2702   52.2732 C.ar    1  ZINC000409064708    0.0000
     16 C16        -8.1892   -0.8940   51.5422 C.ar    1  ZINC000409064708   -0.1600
     17 C17        -7.5798    0.3326   51.7801 C.ar    1  ZINC000409064708    0.1600
     18 O18        -6.4911    0.6985   51.0561 O.3     1  ZINC000409064708   -0.3000
     19 C19        -5.6932    1.7632   51.5776 C.3     1  ZINC000409064708    0.1000
     20 C20        -4.4322    1.8917   50.7625 C.ar    1  ZINC000409064708   -0.0700
     21 C21        -3.2924    2.4264   51.3328 C.ar    1  ZINC000409064708   -0.1000
     22 C22        -2.1347    2.5450   50.5862 C.ar    1  ZINC000409064708   -0.0900
     23 C23        -2.1160    2.1287   49.2687 C.ar    1  ZINC000409064708   -0.1400
     24 C24        -3.2572    1.5923   48.6964 C.ar    1  ZINC000409064708    0.1000
     25 F25        -3.2402    1.1850   47.4083 F       1  ZINC000409064708   -0.1400
     26 C26        -4.4142    1.4693   49.4465 C.ar    1  ZINC000409064708   -0.1300
     27 C27        -8.0813    1.1861   52.7559 C.ar    1  ZINC000409064708   -0.2200
     28 C28        -9.1888    0.8229   53.4885 C.ar    1  ZINC000409064708   -0.0400
     29 C29       -13.3420   -1.7419   54.0157 C.2     1  ZINC000409064708    0.5600
     30 O30       -13.5401   -1.7098   55.2161 O.2     1  ZINC000409064708   -0.4600
     31 H31       -13.9072   -5.0873   56.4779 H       1  ZINC000409064708    0.0700
     32 H32       -15.2679   -6.0777   55.8984 H       1  ZINC000409064708    0.0700
     33 H33       -13.6158   -6.4145   55.3282 H       1  ZINC000409064708    0.1100
     34 H34       -17.3133   -1.8254   54.5505 H       1  ZINC000409064708    0.1000
     35 H35       -15.7948   -1.0260   55.0230 H       1  ZINC000409064708    0.0800
     36 H36       -16.4921   -0.7309   53.4122 H       1  ZINC000409064708    0.0800
     37 H37       -10.9727   -0.7098   55.1158 H       1  ZINC000409064708    0.1600
     38 H38        -9.7656   -2.2236   52.0881 H       1  ZINC000409064708    0.1300
     39 H39        -7.7954   -1.5532   50.7828 H       1  ZINC000409064708    0.1400
     40 H40        -6.2547    2.6961   51.5278 H       1  ZINC000409064708    0.0800
     41 H41        -5.4351    1.5494   52.6148 H       1  ZINC000409064708    0.0800
     42 H42        -3.3062    2.7524   52.3624 H       1  ZINC000409064708    0.1300
     43 H43        -1.2448    2.9633   51.0327 H       1  ZINC000409064708    0.1400
     44 H44        -1.2118    2.2220   48.6854 H       1  ZINC000409064708    0.1400
     45 H45        -5.3048    1.0508   49.0013 H       1  ZINC000409064708    0.1400
     46 H46        -7.6039    2.1378   52.9367 H       1  ZINC000409064708    0.1300
     47 H47        -9.5778    1.4867   54.2464 H       1  ZINC000409064708    0.1300
@<TRIPOS>BOND
     1     1     2    1
     2     1    31    1
     3     1    32    1
     4     1    33    1
     5     2     3    1
     6     3     4    2
     7     3     5    1
     8     5     6    1
     9     5     7    1
    10     5     8    1
    11     7    34    1
    12     7    35    1
    13     7    36    1
    14     8    29   am
    15     8     9   am
    16     9    10    2
    17     9    11    1
    18    11    12    1
    19    12    13    2
    20    12    29    1
    21    13    14    1
    22    13    37    1
    23    14    28   ar
    24    14    15   ar
    25    15    16   ar
    26    15    38    1
    27    16    17   ar
    28    16    39    1
    29    17    18    1
    30    17    27   ar
    31    18    19    1
    32    19    20    1
    33    19    40    1
    34    19    41    1
    35    20    26   ar
    36    20    21   ar
    37    21    22   ar
    38    21    42    1
    39    22    23   ar
    40    22    43    1
    41    23    24   ar
    42    23    44    1
    43    24    25    1
    44    24    26   ar
    45    26    45    1
    46    27    28   ar
    47    27    46    1
    48    28    47    1
    49    29    30    2
@<TRIPOS>SUBSTRUCTURE
     1 ZINC000409064708        1 TEMP              0 ****  ****    0 ROOT


##########                                Name:    ZINC000892389374
##########                DOCK_Rotatable_Bonds:                   6
##########                         Heavy_Atoms:                  25
##########                    Molecular_Weight:             371.383
##########                DOCK_Rotatable_Bonds:                   6
##########                       Formal_Charge:          -0.0199998
##########                     HBond_Acceptors:                   9
##########                        HBond_Donors:                   1
##########                         Heavy_Atoms:                  25
##########                          Grid_Score:          -33.292141
##########                     Grid_vdw_energy:          -32.638596
##########                      Grid_es_energy:           -0.653544
##########           Internal_energy_repulsive:            8.257616

@<TRIPOS>MOLECULE
ZINC000892389374
 41 43 1 0 0
SMALL
USER_CHARGES


@<TRIPOS>ATOM
      1 C1        -15.7037   -3.9392   54.2208 C.3     1  ZINC000892389374   -0.1000
      2 C2        -14.5518   -3.8928   55.1915 C.ar    1  ZINC000892389374   -0.1800
      3 C3        -14.7801   -4.0701   56.5422 C.ar    1  ZINC000892389374   -0.0400
      4 C4        -13.7266   -4.0287   57.4353 C.ar    1  ZINC000892389374   -0.2100
      5 C5        -12.4340   -3.8079   56.9773 C.ar    1  ZINC000892389374    0.2200
      6 N6        -11.3677   -3.7661   57.8828 N.am    1  ZINC000892389374   -0.5700
      7 C7        -10.8439   -2.5546   58.5322 C.3     1  ZINC000892389374    0.0600
      8 C8         -9.6925   -3.0785   59.4120 C.3     1  ZINC000892389374    0.0400
      9 O9         -9.6882   -4.5150   59.1688 O.3     1  ZINC000892389374   -0.3200
     10 C10       -10.6610   -4.8239   58.3040 C.2     1  ZINC000892389374    0.6400
     11 O11       -10.8784   -5.9588   57.9281 O.2     1  ZINC000892389374   -0.5000
     12 C12       -12.2008   -3.6294   55.6213 C.ar    1  ZINC000892389374   -0.2300
     13 C13       -13.2601   -3.6773   54.7260 C.ar    1  ZINC000892389374    0.2400
     14 N14       -13.0298   -3.4980   53.3602 N.pl3   1  ZINC000892389374   -0.7400
     15 C15       -13.0798   -2.1541   52.7791 C.3     1  ZINC000892389374    0.2000
     16 C16       -11.6774   -1.6609   52.5326 C.2     1  ZINC000892389374   -0.2400
     17 C17       -10.6336   -2.4102   52.1652 C.2     1  ZINC000892389374    0.0600
     18 N18        -9.5081   -1.7422   52.0122 N.2     1  ZINC000892389374   -0.4500
     19 C19        -9.5443   -0.4709   52.2300 C.2     1  ZINC000892389374    0.0200
     20 C20        -8.3648    0.4591   52.1076 C.3     1  ZINC000892389374   -0.0900
     21 C21        -8.4859    1.5758   53.1464 C.3     1  ZINC000892389374    0.4600
     22 F22        -7.2771    2.2761   53.2215 F       1  ZINC000892389374   -0.1800
     23 F23        -9.5100    2.4521   52.7719 F       1  ZINC000892389374   -0.1800
     24 F24        -8.7813    1.0202   54.3960 F       1  ZINC000892389374   -0.1700
     25 S25       -11.1258    0.0068   52.6704 S.3     1  ZINC000892389374    0.1900
     26 H26       -15.8507   -4.9642   53.8802 H       1  ZINC000892389374    0.0700
     27 H27       -16.6094   -3.5871   54.7146 H       1  ZINC000892389374    0.0700
     28 H28       -15.4842   -3.3001   53.3656 H       1  ZINC000892389374    0.0600
     29 H29       -15.7843   -4.2412   56.9010 H       1  ZINC000892389374    0.1300
     30 H30       -13.9085   -4.1677   58.4908 H       1  ZINC000892389374    0.1200
     31 H31       -10.4680   -1.8532   57.7874 H       1  ZINC000892389374    0.1000
     32 H32       -11.6130   -2.0867   59.1466 H       1  ZINC000892389374    0.1000
     33 H33        -8.7449   -2.6360   59.1047 H       1  ZINC000892389374    0.1100
     34 H34        -9.8896   -2.8695   60.4635 H       1  ZINC000892389374    0.1100
     35 H35       -11.1967   -3.4573   55.2628 H       1  ZINC000892389374    0.1600
     36 H36       -12.8367   -4.2633   52.7963 H       1  ZINC000892389374    0.4000
     37 H37       -13.6248   -2.1863   51.8357 H       1  ZINC000892389374    0.0900
     38 H38       -13.5865   -1.4788   53.4685 H       1  ZINC000892389374    0.0800
     39 H39       -10.7065   -3.4761   52.0067 H       1  ZINC000892389374    0.1800
     40 H40        -7.4436   -0.0979   52.2786 H       1  ZINC000892389374    0.1300
     41 H41        -8.3465    0.8933   51.1079 H       1  ZINC000892389374    0.1400
@<TRIPOS>BOND
     1     1     2    1
     2     1    26    1
     3     1    27    1
     4     1    28    1
     5     2    13   ar
     6     2     3   ar
     7     3     4   ar
     8     3    29    1
     9     4     5   ar
    10     4    30    1
    11     5     6    1
    12     5    12   ar
    13     6    10   am
    14     6     7    1
    15     7     8    1
    16     7    31    1
    17     7    32    1
    18     8     9    1
    19     8    33    1
    20     8    34    1
    21     9    10    1
    22    10    11    2
    23    12    13   ar
    24    12    35    1
    25    13    14    1
    26    14    15    1
    27    14    36    1
    28    15    16    1
    29    15    37    1
    30    15    38    1
    31    16    25    1
    32    16    17    2
    33    17    18    1
    34    17    39    1
    35    18    19    2
    36    19    20    1
    37    19    25    1
    38    20    21    1
    39    20    40    1
    40    20    41    1
    41    21    22    1
    42    21    23    1
    43    21    24    1
@<TRIPOS>SUBSTRUCTURE
     1 ZINC000892389374        1 TEMP              0 ****  ****    0 ROOT


##########                                Name:    ZINC000805177769
##########                DOCK_Rotatable_Bonds:                  10
##########                         Heavy_Atoms:                  30
##########                    Molecular_Weight:             417.548
##########                DOCK_Rotatable_Bonds:                  10
##########                       Formal_Charge:           0.0199995
##########                     HBond_Acceptors:                   7
##########                        HBond_Donors:                   1
##########                         Heavy_Atoms:                  30
##########                          Grid_Score:          -33.275700
##########                     Grid_vdw_energy:          -33.005234
##########                      Grid_es_energy:           -0.270466
##########           Internal_energy_repulsive:           50.564514

@<TRIPOS>MOLECULE
ZINC000805177769
 65 66 1 0 0
SMALL
USER_CHARGES


@<TRIPOS>ATOM
      1 C1        -11.5043   -0.6871   60.7322 C.3     1  ZINC000805177769   -0.1200
      2 C2        -11.8891   -1.7989   59.7903 C.ar    1  ZINC000805177769   -0.0800
      3 C3        -10.9473   -2.3348   58.9325 C.ar    1  ZINC000805177769   -0.1200
      4 C4        -11.3004   -3.3548   58.0684 C.ar    1  ZINC000805177769   -0.1100
      5 C5        -12.5950   -3.8386   58.0626 C.ar    1  ZINC000805177769   -0.0900
      6 C6        -12.9799   -4.9499   57.1204 C.3     1  ZINC000805177769   -0.0900
      7 C7        -13.5445   -4.3520   55.8301 C.3     1  ZINC000805177769    0.1500
      8 H8        -14.2060   -3.5207   56.0739 H       1  ZINC000805177769    0.1000
      9 C9        -14.3305   -5.4239   55.0726 C.3     1  ZINC000805177769   -0.1700
     10 N10       -12.4434   -3.8703   54.9925 N.am    1  ZINC000805177769   -0.6900
     11 C11       -12.6308   -2.8166   54.1733 C.2     1  ZINC000805177769    0.5100
     12 O12       -13.7122   -2.2678   54.1285 O.2     1  ZINC000805177769   -0.5100
     13 C13       -11.5070   -2.3242   53.3201 C.2     1  ZINC000805177769    0.5200
     14 O14       -11.1016   -3.0029   52.3996 O.2     1  ZINC000805177769   -0.5200
     15 N15       -10.9437   -1.1261   53.5733 N.am    1  ZINC000805177769   -0.5900
     16 C16       -11.3347   -0.2061   54.6512 C.3     1  ZINC000805177769    0.1100
     17 C17       -10.3994    1.0187   54.5701 C.3     1  ZINC000805177769   -0.1500
     18 C18        -9.1671    0.4648   53.8070 C.3     1  ZINC000805177769    0.1500
     19 H19        -8.4911   -0.0580   54.4837 H       1  ZINC000805177769    0.1200
     20 N20        -8.4668    1.5355   53.0932 N.am    1  ZINC000805177769   -0.5900
     21 C21        -8.3787    1.5055   51.6311 C.3     1  ZINC000805177769    0.0800
     22 C22        -7.9033    2.5479   53.7816 C.2     1  ZINC000805177769    0.6600
     23 O23        -7.3210    3.4351   53.1896 O.2     1  ZINC000805177769   -0.5600
     24 O24        -7.9853    2.5762   55.1252 O.3     1  ZINC000805177769   -0.3600
     25 C25        -7.3008    3.6617   55.8046 C.3     1  ZINC000805177769    0.1400
     26 C26        -5.8117    3.6239   55.4548 C.3     1  ZINC000805177769   -0.1800
     27 C27        -7.8958    4.9986   55.3581 C.3     1  ZINC000805177769   -0.1400
     28 C28        -7.4735    3.5062   57.3168 C.3     1  ZINC000805177769   -0.1800
     29 C29        -9.8292   -0.5242   52.8189 C.3     1  ZINC000805177769    0.0900
     30 C30       -13.5368   -3.3033   58.9217 C.ar    1  ZINC000805177769   -0.0800
     31 C31       -14.9483   -3.8311   58.9157 C.3     1  ZINC000805177769   -0.1200
     32 C32       -13.1829   -2.2863   59.7882 C.ar    1  ZINC000805177769   -0.1200
     33 H33       -11.1514   -1.1127   61.6716 H       1  ZINC000805177769    0.0700
     34 H34       -10.7111   -0.0890   60.2836 H       1  ZINC000805177769    0.0700
     35 H35       -12.3721   -0.0556   60.9227 H       1  ZINC000805177769    0.0700
     36 H36        -9.9356   -1.9569   58.9370 H       1  ZINC000805177769    0.1200
     37 H37       -10.5645   -3.7731   57.3976 H       1  ZINC000805177769    0.1200
     38 H38       -12.1005   -5.5503   56.8881 H       1  ZINC000805177769    0.0800
     39 H39       -13.7358   -5.5792   57.5903 H       1  ZINC000805177769    0.0900
     40 H40       -13.6690   -6.2552   54.8288 H       1  ZINC000805177769    0.0600
     41 H41       -15.1498   -5.7822   55.6958 H       1  ZINC000805177769    0.0700
     42 H42       -14.7327   -4.9979   54.1533 H       1  ZINC000805177769    0.0600
     43 H43       -11.5793   -4.3098   55.0274 H       1  ZINC000805177769    0.4100
     44 H44       -12.3694    0.1080   54.5134 H       1  ZINC000805177769    0.0900
     45 H45       -11.2197   -0.6970   55.6175 H       1  ZINC000805177769    0.0900
     46 H46       -10.8693    1.8264   54.0090 H       1  ZINC000805177769    0.0900
     47 H47       -10.1162    1.3545   55.5676 H       1  ZINC000805177769    0.0900
     48 H48        -9.2342    2.0295   51.2048 H       1  ZINC000805177769    0.0600
     49 H49        -7.4579    1.9939   51.3125 H       1  ZINC000805177769    0.0800
     50 H50        -8.3788    0.4708   51.2882 H       1  ZINC000805177769    0.0800
     51 H51        -5.6886    3.7346   54.3775 H       1  ZINC000805177769    0.0600
     52 H52        -5.2979    4.4386   55.9649 H       1  ZINC000805177769    0.0700
     53 H53        -5.3878    2.6714   55.7730 H       1  ZINC000805177769    0.0900
     54 H54        -8.9566    5.0255   55.6072 H       1  ZINC000805177769    0.0700
     55 H55        -7.3820    5.8134   55.8681 H       1  ZINC000805177769    0.0800
     56 H56        -7.7727    5.1093   54.2806 H       1  ZINC000805177769    0.0700
     57 H57        -7.0496    2.5538   57.6350 H       1  ZINC000805177769    0.0900
     58 H58        -6.9598    4.3210   57.8269 H       1  ZINC000805177769    0.0700
     59 H59        -8.5344    3.5331   57.5660 H       1  ZINC000805177769    0.0600
     60 H60        -9.1162   -1.2898   52.5135 H       1  ZINC000805177769    0.0900
     61 H61       -10.2115    0.0084   51.9481 H       1  ZINC000805177769    0.0800
     62 H62       -15.0322   -4.6521   59.6278 H       1  ZINC000805177769    0.0700
     63 H63       -15.6357   -3.0336   59.1981 H       1  ZINC000805177769    0.0700
     64 H64       -15.1982   -4.1894   57.9171 H       1  ZINC000805177769    0.0700
     65 H65       -13.9186   -1.8681   60.4593 H       1  ZINC000805177769    0.1200
@<TRIPOS>BOND
     1     1     2    1
     2     1    33    1
     3     1    34    1
     4     1    35    1
     5     2    32   ar
     6     2     3   ar
     7     3     4   ar
     8     3    36    1
     9     4     5   ar
    10     4    37    1
    11     5     6    1
    12     5    30   ar
    13     6     7    1
    14     6    38    1
    15     6    39    1
    16     7     8    1
    17     7     9    1
    18     7    10    1
    19     9    40    1
    20     9    41    1
    21     9    42    1
    22    10    11   am
    23    10    43    1
    24    11    12    2
    25    11    13    1
    26    13    14    2
    27    13    15   am
    28    15    29    1
    29    15    16    1
    30    16    17    1
    31    16    44    1
    32    16    45    1
    33    17    18    1
    34    17    46    1
    35    17    47    1
    36    18    19    1
    37    18    20    1
    38    18    29    1
    39    20    21    1
    40    20    22   am
    41    21    48    1
    42    21    49    1
    43    21    50    1
    44    22    23    2
    45    22    24    1
    46    24    25    1
    47    25    26    1
    48    25    27    1
    49    25    28    1
    50    26    51    1
    51    26    52    1
    52    26    53    1
    53    27    54    1
    54    27    55    1
    55    27    56    1
    56    28    57    1
    57    28    58    1
    58    28    59    1
    59    29    60    1
    60    29    61    1
    61    30    31    1
    62    30    32   ar
    63    31    62    1
    64    31    63    1
    65    31    64    1
    66    32    65    1
@<TRIPOS>SUBSTRUCTURE
     1 ZINC000805177769        1 TEMP              0 ****  ****    0 ROOT


##########                                Name:    ZINC000822449555
##########                DOCK_Rotatable_Bonds:                   5
##########                         Heavy_Atoms:                  27
##########                    Molecular_Weight:             366.383
##########                DOCK_Rotatable_Bonds:                   5
##########                       Formal_Charge:          -0.0100009
##########                     HBond_Acceptors:                  10
##########                        HBond_Donors:                   2
##########                         Heavy_Atoms:                  27
##########                          Grid_Score:          -33.274029
##########                     Grid_vdw_energy:          -32.803711
##########                      Grid_es_energy:           -0.470319
##########           Internal_energy_repulsive:            7.098389

@<TRIPOS>MOLECULE
ZINC000822449555
 45 48 1 0 0
SMALL
USER_CHARGES


@<TRIPOS>ATOM
      1 C1        -11.7880   -3.1724   58.0938 C.3     1  ZINC000822449555   -0.1100
      2 C2        -11.2105   -2.1487   57.1505 C.ar    1  ZINC000822449555    0.1400
      3 N3        -11.5445   -2.1760   55.8745 N.ar    1  ZINC000822449555   -0.5000
      4 C4        -11.0619   -1.2970   55.0103 C.ar    1  ZINC000822449555    0.3000
      5 N5        -11.4435   -1.3657   53.6731 N.3     1  ZINC000822449555   -0.4700
      6 C6        -12.8618   -1.0139   53.5113 C.3     1  ZINC000822449555    0.0200
      7 C7        -13.2230   -1.0440   52.0239 C.3     1  ZINC000822449555    0.0600
      8 O8        -12.9217   -2.3367   51.4914 O.3     1  ZINC000822449555   -0.3800
      9 C9        -11.5485   -2.7114   51.6315 C.3     1  ZINC000822449555    0.0600
     10 C10       -11.1704   -2.6981   53.1150 C.3     1  ZINC000822449555    0.0300
     11 C11       -10.1783   -0.3055   55.4230 C.ar    1  ZINC000822449555   -0.1700
     12 C12        -9.8056   -0.2460   56.7534 C.ar    1  ZINC000822449555   -0.0500
     13 C13       -10.3384   -1.1853   57.6349 C.ar    1  ZINC000822449555    0.0600
     14 N14        -9.9888   -1.1630   58.9915 N.am    1  ZINC000822449555   -0.6600
     15 C15       -10.4977   -0.2149   59.8030 C.2     1  ZINC000822449555    0.5700
     16 O16       -11.2601    0.6212   59.3579 O.2     1  ZINC000822449555   -0.5100
     17 C17       -10.1291   -0.1915   61.2331 C.ar    1  ZINC000822449555   -0.1800
     18 C18        -9.5163   -1.3031   61.8272 C.ar    1  ZINC000822449555   -0.0100
     19 C19        -9.1900   -1.2345   63.1674 C.ar    1  ZINC000822449555   -0.1300
     20 C20        -9.4784   -0.0711   63.8794 C.ar    1  ZINC000822449555    0.2300
     21 C21        -9.1312    0.0109   65.3191 C.2     1  ZINC000822449555    0.2100
     22 N22        -9.3864    1.0149   66.1351 N.2     1  ZINC000822449555   -0.2500
     23 N23        -8.9283    0.7034   67.2986 N.pl3   1  ZINC000822449555   -0.2200
     24 N24        -8.3912   -0.4653   67.2462 N.2     1  ZINC000822449555   -0.0400
     25 N25        -8.5018   -0.9240   66.0458 N.2     1  ZINC000822449555   -0.2500
     26 N26       -10.0594    0.9646   63.2857 N.ar    1  ZINC000822449555   -0.4500
     27 C27       -10.3809    0.9410   62.0108 C.ar    1  ZINC000822449555    0.1400
     28 H28       -12.7218   -2.7957   58.5114 H       1  ZINC000822449555    0.0800
     29 H29       -11.9800   -4.0984   57.5518 H       1  ZINC000822449555    0.0800
     30 H30       -11.0802   -3.3634   58.9003 H       1  ZINC000822449555    0.0700
     31 H31       -13.4789   -1.7326   54.0503 H       1  ZINC000822449555    0.0600
     32 H32       -13.0362   -0.0137   53.9079 H       1  ZINC000822449555    0.1000
     33 H33       -14.2868   -0.8398   51.9034 H       1  ZINC000822449555    0.1100
     34 H34       -12.6441   -0.2879   51.4933 H       1  ZINC000822449555    0.0600
     35 H35       -11.4015   -3.7129   51.2273 H       1  ZINC000822449555    0.1000
     36 H36       -10.9211   -2.0038   51.0897 H       1  ZINC000822449555    0.0600
     37 H37       -10.1102   -2.9273   53.2225 H       1  ZINC000822449555    0.1000
     38 H38       -11.7605   -3.4438   53.6477 H       1  ZINC000822449555    0.0600
     39 H39        -9.7879    0.4089   54.7134 H       1  ZINC000822449555    0.1400
     40 H40        -9.1208    0.5129   57.1021 H       1  ZINC000822449555    0.1500
     41 H41        -9.3805   -1.8300   59.3465 H       1  ZINC000822449555    0.4100
     42 H42        -9.3049   -2.1919   61.2511 H       1  ZINC000822449555    0.1600
     43 H43        -8.7172   -2.0724   63.6581 H       1  ZINC000822449555    0.1600
     44 H44        -8.9802    1.2620   68.0899 H       1  ZINC000822449555    0.4800
     45 H45       -10.8523    1.8031   61.5626 H       1  ZINC000822449555    0.1700
@<TRIPOS>BOND
     1     1     2    1
     2     1    28    1
     3     1    29    1
     4     1    30    1
     5     2    13   ar
     6     2     3   ar
     7     3     4   ar
     8     4     5    1
     9     4    11   ar
    10     5    10    1
    11     5     6    1
    12     6     7    1
    13     6    31    1
    14     6    32    1
    15     7     8    1
    16     7    33    1
    17     7    34    1
    18     8     9    1
    19     9    10    1
    20     9    35    1
    21     9    36    1
    22    10    37    1
    23    10    38    1
    24    11    12   ar
    25    11    39    1
    26    12    13   ar
    27    12    40    1
    28    13    14    1
    29    14    15   am
    30    14    41    1
    31    15    16    2
    32    15    17    1
    33    17    27   ar
    34    17    18   ar
    35    18    19   ar
    36    18    42    1
    37    19    20   ar
    38    19    43    1
    39    20    21    1
    40    20    26   ar
    41    21    25    1
    42    21    22    2
    43    22    23    1
    44    23    24    1
    45    23    44    1
    46    24    25    2
    47    26    27   ar
    48    27    45    1
@<TRIPOS>SUBSTRUCTURE
     1 ZINC000822449555        1 TEMP              0 ****  ****    0 ROOT


##########                                Name:    ZINC000301324012
##########                DOCK_Rotatable_Bonds:                   7
##########                         Heavy_Atoms:                  28
##########                    Molecular_Weight:               415.9
##########                DOCK_Rotatable_Bonds:                   7
##########                       Formal_Charge:          -0.0100002
##########                     HBond_Acceptors:                   8
##########                        HBond_Donors:                   2
##########                         Heavy_Atoms:                  28
##########                          Grid_Score:          -33.250576
##########                     Grid_vdw_energy:          -32.630207
##########                      Grid_es_energy:           -0.620368
##########           Internal_energy_repulsive:           12.034504

@<TRIPOS>MOLECULE
ZINC000301324012
 46 48 1 0 0
SMALL
USER_CHARGES


@<TRIPOS>ATOM
      1 C1         -7.5576    3.2564   52.7255 C.3     1  ZINC000301324012   -0.1600
      2 C2         -8.2316    2.7205   51.4608 C.3     1  ZINC000301324012    0.2000
      3 H3         -7.4848    2.2453   50.8246 H       1  ZINC000301324012    0.1100
      4 N4         -9.2538    1.7385   51.8309 N.am    1  ZINC000301324012   -0.7100
      5 C5         -8.9226    0.4392   51.9660 C.2     1  ZINC000301324012    0.5500
      6 O6         -7.7753    0.0821   51.7822 O.2     1  ZINC000301324012   -0.5300
      7 C7         -9.9547   -0.5520   52.3378 C.ar    1  ZINC000301324012   -0.0700
      8 C8         -9.6858   -1.9175   52.2316 C.ar    1  ZINC000301324012   -0.1100
      9 C9        -10.6530   -2.8371   52.5806 C.ar    1  ZINC000301324012   -0.0200
     10 C10       -11.8876   -2.4085   53.0347 C.ar    1  ZINC000301324012   -0.6600
     11 S11       -13.1176   -3.5897   53.4780 S.o2    1  ZINC000301324012    2.6900
     12 O12       -14.2849   -3.2487   52.7427 O.2     1  ZINC000301324012   -0.9400
     13 O13       -12.4955   -4.8649   53.4008 O.2     1  ZINC000301324012   -0.9400
     14 N14       -13.4818   -3.3429   55.0744 N.am    1  ZINC000301324012   -1.0500
     15 C15       -12.4840   -3.4638   56.0454 C.ar    1  ZINC000301324012    0.1600
     16 C16       -11.6289   -2.4001   56.3008 C.ar    1  ZINC000301324012   -0.1600
     17 C17       -10.6435   -2.5229   57.2614 C.ar    1  ZINC000301324012   -0.0800
     18 C18       -10.5076   -3.7032   57.9683 C.ar    1  ZINC000301324012   -0.1200
     19 C19       -11.3574   -4.7653   57.7171 C.ar    1  ZINC000301324012   -0.0900
     20 C20       -12.3490   -4.6475   56.7621 C.ar    1  ZINC000301324012   -0.0600
     21 Cl21      -13.4152   -5.9807   56.4472 Cl      1  ZINC000301324012   -0.0600
     22 C22       -12.1606   -1.0563   53.1428 C.ar    1  ZINC000301324012   -0.0200
     23 C23       -11.2003   -0.1264   52.8020 C.ar    1  ZINC000301324012   -0.0800
     24 C24        -8.8762    3.8596   50.7139 C.ar    1  ZINC000301324012    0.1200
     25 C25       -10.0090    3.6263   49.9579 C.ar    1  ZINC000301324012   -0.1600
     26 C26       -10.5947    4.6815   49.2748 C.ar    1  ZINC000301324012   -0.0700
     27 C27       -10.0161    5.9370   49.3787 C.ar    1  ZINC000301324012   -0.1700
     28 C28        -8.8827    6.0942   50.1541 C.ar    1  ZINC000301324012    0.1100
     29 N29        -8.3556    5.0688   50.7939 N.ar    1  ZINC000301324012   -0.4900
     30 H30        -6.7970    3.9869   52.4501 H       1  ZINC000301324012    0.0700
     31 H31        -8.3043    3.7315   53.3616 H       1  ZINC000301324012    0.0600
     32 H32        -7.0913    2.4324   53.2657 H       1  ZINC000301324012    0.0700
     33 H33       -10.1692    2.0236   51.9786 H       1  ZINC000301324012    0.4100
     34 H34        -8.7226   -2.2533   51.8765 H       1  ZINC000301324012    0.1400
     35 H35       -10.4461   -3.8940   52.4989 H       1  ZINC000301324012    0.1500
     36 H36       -14.3876   -3.1145   55.3356 H       1  ZINC000301324012    0.4300
     37 H37       -11.7337   -1.4779   55.7488 H       1  ZINC000301324012    0.1700
     38 H38        -9.9782   -1.6956   57.4602 H       1  ZINC000301324012    0.1400
     39 H39        -9.7359   -3.7964   58.7181 H       1  ZINC000301324012    0.1400
     40 H40       -11.2484   -5.6860   58.2710 H       1  ZINC000301324012    0.1400
     41 H41       -13.1262   -0.7283   53.4983 H       1  ZINC000301324012    0.1500
     42 H42       -11.4144    0.9288   52.8872 H       1  ZINC000301324012    0.1500
     43 H43       -10.4327    2.6346   49.8992 H       1  ZINC000301324012    0.1400
     44 H44       -11.4803    4.5288   48.6758 H       1  ZINC000301324012    0.1400
     45 H45       -10.4452    6.7815   48.8599 H       1  ZINC000301324012    0.1400
     46 H46        -8.4256    7.0689   50.2398 H       1  ZINC000301324012    0.1600
@<TRIPOS>BOND
     1     1     2    1
     2     1    30    1
     3     1    31    1
     4     1    32    1
     5     2     3    1
     6     2     4    1
     7     2    24    1
     8     4     5   am
     9     4    33    1
    10     5     6    2
    11     5     7    1
    12     7    23   ar
    13     7     8   ar
    14     8     9   ar
    15     8    34    1
    16     9    10   ar
    17     9    35    1
    18    10    11    1
    19    10    22   ar
    20    11    12    2
    21    11    13    2
    22    11    14   am
    23    14    15    1
    24    14    36    1
    25    15    20   ar
    26    15    16   ar
    27    16    17   ar
    28    16    37    1
    29    17    18   ar
    30    17    38    1
    31    18    19   ar
    32    18    39    1
    33    19    20   ar
    34    19    40    1
    35    20    21    1
    36    22    23   ar
    37    22    41    1
    38    23    42    1
    39    24    29   ar
    40    24    25   ar
    41    25    26   ar
    42    25    43    1
    43    26    27   ar
    44    26    44    1
    45    27    28   ar
    46    27    45    1
    47    28    29   ar
    48    28    46    1
@<TRIPOS>SUBSTRUCTURE
     1 ZINC000301324012        1 TEMP              0 ****  ****    0 ROOT


##########                                Name:    ZINC000439870054
##########                DOCK_Rotatable_Bonds:                   5
##########                         Heavy_Atoms:                  27
##########                    Molecular_Weight:             421.974
##########                DOCK_Rotatable_Bonds:                   5
##########                       Formal_Charge:           0.0200003
##########                     HBond_Acceptors:                   9
##########                        HBond_Donors:                   0
##########                         Heavy_Atoms:                  27
##########                          Grid_Score:          -33.248817
##########                     Grid_vdw_energy:          -32.753315
##########                      Grid_es_energy:           -0.495503
##########           Internal_energy_repulsive:           66.088043

@<TRIPOS>MOLECULE
ZINC000439870054
 47 50 1 0 0
SMALL
USER_CHARGES


@<TRIPOS>ATOM
      1 C1         -9.6604   -1.6151   59.9794 C.3     1  ZINC000439870054   -0.1400
      2 C2        -10.1477   -2.9247   59.3562 C.3     1  ZINC000439870054    0.0000
      3 C3         -9.5981   -4.1065   60.1578 C.3     1  ZINC000439870054   -0.1400
      4 C4        -11.6541   -2.9609   59.3768 C.2     1  ZINC000439870054    0.1900
      5 N5        -12.4319   -2.4276   60.2835 N.2     1  ZINC000439870054   -0.2900
      6 N6        -13.6659   -2.6533   59.9861 N.2     1  ZINC000439870054   -0.2700
      7 C7        -13.7263   -3.3374   58.8855 C.2     1  ZINC000439870054    0.1600
      8 C8        -14.9466   -3.8450   58.1559 C.3     1  ZINC000439870054    0.2400
      9 H9        -15.4039   -4.6595   58.7176 H       1  ZINC000439870054    0.1100
     10 C10       -15.9543   -2.7088   57.9705 C.3     1  ZINC000439870054   -0.1300
     11 N11       -14.4895   -4.3344   56.8414 N.am    1  ZINC000439870054   -0.6300
     12 C12       -15.1820   -4.0563   55.7192 C.2     1  ZINC000439870054    0.5300
     13 O13       -16.1967   -3.3947   55.7811 O.2     1  ZINC000439870054   -0.4900
     14 C14       -14.6956   -4.5671   54.3875 C.3     1  ZINC000439870054   -0.0700
     15 C15       -13.4538   -3.8145   53.9839 C.2     1  ZINC000439870054    0.0900
     16 C16       -12.4884   -4.3793   53.2529 C.2     1  ZINC000439870054   -0.2400
     17 S17       -11.2192   -3.1840   52.9951 S.3     1  ZINC000439870054    0.1300
     18 C18       -12.1436   -2.0080   53.9259 C.2     1  ZINC000439870054    0.1400
     19 C19       -11.7305   -0.6237   54.2033 C.2     1  ZINC000439870054   -0.1300
     20 C20       -10.5841   -0.0512   53.7757 C.2     1  ZINC000439870054   -0.1000
     21 C21       -10.4168    1.2608   54.1628 C.2     1  ZINC000439870054   -0.1200
     22 C22       -11.4128    1.7656   54.9009 C.2     1  ZINC000439870054   -0.1500
     23 Cl23      -11.4714    3.3843   55.5257 Cl      1  ZINC000439870054    0.0000
     24 S24       -12.6563    0.5448   55.1368 S.3     1  ZINC000439870054    0.2500
     25 N25       -13.2563   -2.5610   54.3248 N.2     1  ZINC000439870054   -0.4400
     26 C26       -13.2562   -5.1343   56.7904 C.3     1  ZINC000439870054    0.0900
     27 C27       -12.0752   -4.2719   57.2512 C.3     1  ZINC000439870054    0.0900
     28 N28       -12.4536   -3.5437   58.4614 N.pl3   1  ZINC000439870054   -0.4700
     29 H29        -8.5708   -1.5889   59.9645 H       1  ZINC000439870054    0.0700
     30 H30       -10.0520   -0.7732   59.4083 H       1  ZINC000439870054    0.0500
     31 H31       -10.0114   -1.5501   61.0093 H       1  ZINC000439870054    0.0700
     32 H32        -9.7968   -2.9897   58.3264 H       1  ZINC000439870054    0.0800
     33 H33        -9.9453   -5.0395   59.7139 H       1  ZINC000439870054    0.0500
     34 H34        -8.5085   -4.0803   60.1429 H       1  ZINC000439870054    0.0700
     35 H35        -9.9490   -4.0414   61.1877 H       1  ZINC000439870054    0.0700
     36 H36       -15.5509   -1.9757   57.2720 H       1  ZINC000439870054    0.0600
     37 H37       -16.8874   -3.1114   57.5760 H       1  ZINC000439870054    0.0900
     38 H38       -16.1428   -2.2299   58.9313 H       1  ZINC000439870054    0.0700
     39 H39       -14.4664   -5.6297   54.4676 H       1  ZINC000439870054    0.1100
     40 H40       -15.4710   -4.4182   53.6360 H       1  ZINC000439870054    0.1200
     41 H41       -12.4862   -5.3943   52.8837 H       1  ZINC000439870054    0.1800
     42 H42        -9.8562   -0.5799   53.1783 H       1  ZINC000439870054    0.1500
     43 H43        -9.5461    1.8390   53.8909 H       1  ZINC000439870054    0.1600
     44 H44       -13.3550   -5.9978   57.4481 H       1  ZINC000439870054    0.0900
     45 H45       -13.0835   -5.4720   55.7685 H       1  ZINC000439870054    0.1200
     46 H46       -11.2176   -4.9111   57.4610 H       1  ZINC000439870054    0.1100
     47 H47       -11.8166   -3.5596   56.4676 H       1  ZINC000439870054    0.0900
@<TRIPOS>BOND
     1     1     2    1
     2     1    29    1
     3     1    30    1
     4     1    31    1
     5     2     3    1
     6     2     4    1
     7     2    32    1
     8     3    33    1
     9     3    34    1
    10     3    35    1
    11     4    28    1
    12     4     5    2
    13     5     6    1
    14     6     7    2
    15     7    28    1
    16     7     8    1
    17     8     9    1
    18     8    10    1
    19     8    11    1
    20    10    36    1
    21    10    37    1
    22    10    38    1
    23    11    12   am
    24    11    26    1
    25    12    13    2
    26    12    14    1
    27    14    15    1
    28    14    39    1
    29    14    40    1
    30    15    25    1
    31    15    16    2
    32    16    17    1
    33    16    41    1
    34    17    18    1
    35    18    19    1
    36    18    25    2
    37    19    24    1
    38    19    20    2
    39    20    21    1
    40    20    42    1
    41    21    22    2
    42    21    43    1
    43    22    23    1
    44    22    24    1
    45    26    27    1
    46    26    44    1
    47    26    45    1
    48    27    28    1
    49    27    46    1
    50    27    47    1
@<TRIPOS>SUBSTRUCTURE
     1 ZINC000439870054        1 TEMP              0 ****  ****    0 ROOT


##########                                Name:    ZINC001371344729
##########                DOCK_Rotatable_Bonds:                   9
##########                         Heavy_Atoms:                  24
##########                    Molecular_Weight:             332.399
##########                DOCK_Rotatable_Bonds:                   9
##########                       Formal_Charge:          0.00999983
##########                     HBond_Acceptors:                   6
##########                        HBond_Donors:                   1
##########                         Heavy_Atoms:                  24
##########                          Grid_Score:          -33.236088
##########                     Grid_vdw_energy:          -33.133945
##########                      Grid_es_energy:           -0.102142
##########           Internal_energy_repulsive:           29.064932

@<TRIPOS>MOLECULE
ZINC001371344729
 48 49 1 0 0
SMALL
USER_CHARGES


@<TRIPOS>ATOM
      1 C1        -14.9238   -1.9573   52.1843 C.3     1  ZINC001371344729   -0.1800
      2 C2        -13.5389   -2.5001   51.8262 C.3     1  ZINC001371344729    0.1000
      3 N3        -12.5153   -1.7438   52.5518 N.am    1  ZINC001371344729   -0.6100
      4 C4        -12.2729   -0.4576   52.2299 C.2     1  ZINC001371344729    0.5100
      5 O5        -12.9011    0.0732   51.3386 O.2     1  ZINC001371344729   -0.5200
      6 C6        -11.2212    0.3209   52.9776 C.3     1  ZINC001371344729   -0.0600
      7 C7         -9.8593   -0.0215   52.4308 C.2     1  ZINC001371344729   -0.0100
      8 C8         -8.8056    0.8120   52.3651 C.2     1  ZINC001371344729   -0.1600
      9 C9         -8.7668    2.2481   52.8207 C.3     1  ZINC001371344729   -0.0800
     10 C10        -7.7435    0.0844   51.7811 C.2     1  ZINC001371344729   -0.2100
     11 C11        -8.2087   -1.1532   51.5336 C.2     1  ZINC001371344729   -0.0300
     12 O12        -9.4919   -1.2105   51.9257 O.3     1  ZINC001371344729   -0.1700
     13 C13       -11.7552   -2.3855   53.6273 C.3     1  ZINC001371344729    0.1200
     14 H14       -10.9554   -1.7207   53.9536 H       1  ZINC001371344729    0.1100
     15 C15       -11.1527   -3.6951   53.1148 C.3     1  ZINC001371344729   -0.1600
     16 C16       -12.6866   -2.6790   54.8051 C.3     1  ZINC001371344729    0.1100
     17 N17       -11.9184   -2.6574   56.0524 N.am    1  ZINC001371344729   -0.7200
     18 C18       -11.8433   -3.7648   56.8169 C.2     1  ZINC001371344729    0.5900
     19 O19       -12.4121   -4.7824   56.4707 O.2     1  ZINC001371344729   -0.5300
     20 C20       -11.0720   -3.7424   58.0725 C.2     1  ZINC001371344729   -0.2300
     21 C21       -10.4827   -4.8023   58.6973 C.2     1  ZINC001371344729    0.0200
     22 O22        -9.8811   -4.3577   59.8050 O.3     1  ZINC001371344729   -0.1700
     23 C23       -10.0558   -3.0345   59.9467 C.2     1  ZINC001371344729   -0.0100
     24 C24        -9.5211   -2.1993   61.0813 C.3     1  ZINC001371344729   -0.0800
     25 C25       -10.7824   -2.5742   58.9169 C.2     1  ZINC001371344729   -0.1600
     26 H26       -14.9845   -0.9050   51.9067 H       1  ZINC001371344729    0.0700
     27 H27       -15.6854   -2.5200   51.6444 H       1  ZINC001371344729    0.0700
     28 H28       -15.0882   -2.0601   53.2570 H       1  ZINC001371344729    0.0600
     29 H29       -13.3745   -2.3972   50.7536 H       1  ZINC001371344729    0.0900
     30 H30       -13.4782   -3.5524   52.1038 H       1  ZINC001371344729    0.0800
     31 H31       -11.2628    0.0640   54.0361 H       1  ZINC001371344729    0.1100
     32 H32       -11.4039    1.3885   52.8554 H       1  ZINC001371344729    0.1200
     33 H33        -8.4581    2.2896   53.8653 H       1  ZINC001371344729    0.0700
     34 H34        -8.0559    2.8040   52.2095 H       1  ZINC001371344729    0.0700
     35 H35        -9.7581    2.6891   52.7170 H       1  ZINC001371344729    0.0600
     36 H36        -6.7485    0.4510   51.5758 H       1  ZINC001371344729    0.1500
     37 H37        -7.6473   -1.9620   51.0896 H       1  ZINC001371344729    0.2000
     38 H38       -10.4891   -3.4859   52.2757 H       1  ZINC001371344729    0.0700
     39 H39       -10.5871   -4.1726   53.9150 H       1  ZINC001371344729    0.0700
     40 H40       -11.9526   -4.3598   52.7885 H       1  ZINC001371344729    0.0700
     41 H41       -13.4691   -1.9213   54.8472 H       1  ZINC001371344729    0.0800
     42 H42       -13.1393   -3.6618   54.6741 H       1  ZINC001371344729    0.0800
     43 H43       -11.4638   -1.8460   56.3280 H       1  ZINC001371344729    0.4000
     44 H44       -10.4978   -5.8262   58.3540 H       1  ZINC001371344729    0.2100
     45 H45       -10.2546   -2.1687   61.8871 H       1  ZINC001371344729    0.0800
     46 H46        -8.5942   -2.6382   61.4503 H       1  ZINC001371344729    0.0800
     47 H47        -9.3279   -1.1866   60.7274 H       1  ZINC001371344729    0.0900
     48 H48       -11.0912   -1.5539   58.7435 H       1  ZINC001371344729    0.1600
@<TRIPOS>BOND
     1     1     2    1
     2     1    26    1
     3     1    27    1
     4     1    28    1
     5     2     3    1
     6     2    29    1
     7     2    30    1
     8     3     4   am
     9     3    13    1
    10     4     5    2
    11     4     6    1
    12     6     7    1
    13     6    31    1
    14     6    32    1
    15     7    12    1
    16     7     8    2
    17     8     9    1
    18     8    10    1
    19     9    33    1
    20     9    34    1
    21     9    35    1
    22    10    11    2
    23    10    36    1
    24    11    12    1
    25    11    37    1
    26    13    14    1
    27    13    15    1
    28    13    16    1
    29    15    38    1
    30    15    39    1
    31    15    40    1
    32    16    17    1
    33    16    41    1
    34    16    42    1
    35    17    18   am
    36    17    43    1
    37    18    19    2
    38    18    20    1
    39    20    25    1
    40    20    21    2
    41    21    22    1
    42    21    44    1
    43    22    23    1
    44    23    24    1
    45    23    25    2
    46    24    45    1
    47    24    46    1
    48    24    47    1
    49    25    48    1
@<TRIPOS>SUBSTRUCTURE
     1 ZINC001371344729        1 TEMP              0 ****  ****    0 ROOT


##########                                Name:    ZINC000429196987
##########                DOCK_Rotatable_Bonds:                   7
##########                         Heavy_Atoms:                  28
##########                    Molecular_Weight:             403.505
##########                DOCK_Rotatable_Bonds:                   7
##########                       Formal_Charge:          -0.0399997
##########                     HBond_Acceptors:                   9
##########                        HBond_Donors:                   1
##########                         Heavy_Atoms:                  28
##########                          Grid_Score:          -33.234997
##########                     Grid_vdw_energy:          -32.830841
##########                      Grid_es_energy:           -0.404155
##########           Internal_energy_repulsive:           15.869532

@<TRIPOS>MOLECULE
ZINC000429196987
 53 55 1 0 0
SMALL
USER_CHARGES


@<TRIPOS>ATOM
      1 C1         -8.4300    2.6223   50.8640 C.3     1  ZINC000429196987    0.0800
      2 N2         -7.6694    1.4122   51.1857 N.am    1  ZINC000429196987   -0.6300
      3 C3         -6.2750    1.2873   50.7542 C.3     1  ZINC000429196987    0.1600
      4 C4         -5.3865    2.0572   51.6968 C.ar    1  ZINC000429196987   -0.0600
      5 C5         -5.9211    2.6373   52.8320 C.ar    1  ZINC000429196987   -0.1300
      6 C6         -5.1060    3.3435   53.6966 C.ar    1  ZINC000429196987   -0.0300
      7 C7         -3.7562    3.4693   53.4264 C.ar    1  ZINC000429196987   -0.6600
      8 S8         -2.7174    4.3700   54.5284 S.o2    1  ZINC000429196987    2.5000
      9 C9         -2.2455    3.1610   55.7957 C.3     1  ZINC000429196987   -0.6500
     10 O10        -1.5927    4.7271   53.7366 O.2     1  ZINC000429196987   -0.9400
     11 O11        -3.5700    5.3639   55.0802 O.2     1  ZINC000429196987   -0.9400
     12 C12        -3.2213    2.8881   52.2920 C.ar    1  ZINC000429196987   -0.0300
     13 C13        -4.0356    2.1786   51.4293 C.ar    1  ZINC000429196987   -0.1100
     14 C14        -8.2524    0.4141   51.8786 C.2     1  ZINC000429196987    0.7100
     15 O15        -7.6207   -0.5895   52.1469 O.2     1  ZINC000429196987   -0.5800
     16 N16        -9.5357    0.5285   52.2743 N.am    1  ZINC000429196987   -0.7400
     17 C17       -10.1700   -0.5572   53.0260 C.3     1  ZINC000429196987    0.1600
     18 C18       -11.3978   -0.0185   53.7655 C.3     1  ZINC000429196987   -0.1300
     19 C19       -12.0907   -1.1688   54.4995 C.3     1  ZINC000429196987    0.0700
     20 N20       -12.4924   -2.1973   53.5314 N.3     1  ZINC000429196987   -0.4700
     21 C21       -13.2404   -3.1954   54.1462 C.ar    1  ZINC000429196987    0.2500
     22 C22       -14.6158   -3.2733   53.9309 C.ar    1  ZINC000429196987   -0.1300
     23 C23       -15.3157   -4.2864   54.5669 C.ar    1  ZINC000429196987   -0.1000
     24 C24       -14.6055   -5.1603   55.3781 C.ar    1  ZINC000429196987    0.0200
     25 N25       -13.3039   -5.0129   55.5254 N.ar    1  ZINC000429196987   -0.2200
     26 N26       -12.6485   -4.0804   54.9351 N.ar    1  ZINC000429196987   -0.2800
     27 C27       -11.3253   -2.7630   52.8427 C.3     1  ZINC000429196987    0.0600
     28 C28       -10.6095   -1.6603   52.0593 C.3     1  ZINC000429196987   -0.1200
     29 H29        -8.9297    2.4929   49.9039 H       1  ZINC000429196987    0.0600
     30 H30        -9.1746    2.8005   51.6399 H       1  ZINC000429196987    0.0700
     31 H31        -7.7519    3.4739   50.8088 H       1  ZINC000429196987    0.0800
     32 H32        -5.9860    0.2363   50.7591 H       1  ZINC000429196987    0.1000
     33 H33        -6.1693    1.6883   49.7462 H       1  ZINC000429196987    0.0900
     34 H34        -6.9757    2.5389   53.0431 H       1  ZINC000429196987    0.1300
     35 H35        -5.5238    3.7973   54.5832 H       1  ZINC000429196987    0.1400
     36 H36        -1.7181    2.3302   55.3268 H       1  ZINC000429196987    0.1300
     37 H37        -1.5943    3.6378   56.5282 H       1  ZINC000429196987    0.1300
     38 H38        -3.1407    2.7884   56.2936 H       1  ZINC000429196987    0.1300
     39 H39        -2.1666    2.9861   52.0810 H       1  ZINC000429196987    0.1400
     40 H40        -3.6177    1.7246   50.5430 H       1  ZINC000429196987    0.1400
     41 H41       -10.0394    1.3297   52.0613 H       1  ZINC000429196987    0.4000
     42 H42        -9.4601   -0.9651   53.7457 H       1  ZINC000429196987    0.0900
     43 H43       -11.0858    0.7376   54.4861 H       1  ZINC000429196987    0.0800
     44 H44       -12.0890    0.4246   53.0486 H       1  ZINC000429196987    0.0700
     45 H45       -11.4035   -1.6024   55.2259 H       1  ZINC000429196987    0.0600
     46 H46       -12.9735   -0.7911   55.0153 H       1  ZINC000429196987    0.0900
     47 H47       -15.1200   -2.5660   53.2890 H       1  ZINC000429196987    0.1500
     48 H48       -16.3824   -4.3926   54.4355 H       1  ZINC000429196987    0.1500
     49 H49       -15.1195   -5.9610   55.8891 H       1  ZINC000429196987    0.1700
     50 H50       -10.6417   -3.1892   53.5769 H       1  ZINC000429196987    0.0500
     51 H51       -11.6522   -3.5432   52.1552 H       1  ZINC000429196987    0.0900
     52 H52       -11.2883   -1.2431   51.3155 H       1  ZINC000429196987    0.0800
     53 H53        -9.7345   -2.0773   51.5608 H       1  ZINC000429196987    0.0800
@<TRIPOS>BOND
     1     1     2    1
     2     1    29    1
     3     1    30    1
     4     1    31    1
     5     2     3    1
     6     2    14   am
     7     3     4    1
     8     3    32    1
     9     3    33    1
    10     4    13   ar
    11     4     5   ar
    12     5     6   ar
    13     5    34    1
    14     6     7   ar
    15     6    35    1
    16     7     8    1
    17     7    12   ar
    18     8     9    1
    19     8    10    2
    20     8    11    2
    21     9    36    1
    22     9    37    1
    23     9    38    1
    24    12    13   ar
    25    12    39    1
    26    13    40    1
    27    14    15    2
    28    14    16   am
    29    16    17    1
    30    16    41    1
    31    17    28    1
    32    17    18    1
    33    17    42    1
    34    18    19    1
    35    18    43    1
    36    18    44    1
    37    19    20    1
    38    19    45    1
    39    19    46    1
    40    20    21    1
    41    20    27    1
    42    21    26   ar
    43    21    22   ar
    44    22    23   ar
    45    22    47    1
    46    23    24   ar
    47    23    48    1
    48    24    25   ar
    49    24    49    1
    50    25    26   ar
    51    27    28    1
    52    27    50    1
    53    27    51    1
    54    28    52    1
    55    28    53    1
@<TRIPOS>SUBSTRUCTURE
     1 ZINC000429196987        1 TEMP              0 ****  ****    0 ROOT


##########                                Name:    ZINC000938043669
##########                DOCK_Rotatable_Bonds:                   7
##########                         Heavy_Atoms:                  27
##########                    Molecular_Weight:             372.439
##########                DOCK_Rotatable_Bonds:                   7
##########                       Formal_Charge:           0.0499999
##########                     HBond_Acceptors:                   6
##########                        HBond_Donors:                   1
##########                         Heavy_Atoms:                  27
##########                          Grid_Score:          -33.234924
##########                     Grid_vdw_energy:          -31.936632
##########                      Grid_es_energy:           -1.298294
##########           Internal_energy_repulsive:           15.194090

@<TRIPOS>MOLECULE
ZINC000938043669
 52 55 1 0 0
SMALL
USER_CHARGES


@<TRIPOS>ATOM
      1 O1        -11.6630    0.7853   62.8500 O.2     1  ZINC000938043669   -0.5000
      2 C2        -10.6990    0.0621   62.7137 C.2     1  ZINC000938043669    0.5300
      3 C3         -9.5095    0.2121   63.6267 C.3     1  ZINC000938043669    0.0500
      4 O4         -9.9391    0.7290   64.8877 O.3     1  ZINC000938043669   -0.2800
      5 C5         -8.9817    0.9253   65.8329 C.ar    1  ZINC000938043669    0.0900
      6 C6         -7.6567    0.6316   65.5507 C.ar    1  ZINC000938043669   -0.1800
      7 C7         -6.6849    0.8324   66.5128 C.ar    1  ZINC000938043669   -0.0900
      8 C8         -7.0322    1.3257   67.7564 C.ar    1  ZINC000938043669   -0.1300
      9 C9         -8.3530    1.6196   68.0424 C.ar    1  ZINC000938043669   -0.1100
     10 C10        -9.3288    1.4261   67.0817 C.ar    1  ZINC000938043669    0.0800
     11 F11       -10.6191    1.7131   67.3607 F       1  ZINC000938043669   -0.1300
     12 N12       -10.6938   -0.8795   61.7494 N.am    1  ZINC000938043669   -0.6200
     13 C13        -9.5986   -1.8219   61.4779 C.3     1  ZINC000938043669    0.1000
     14 C14       -10.0489   -2.7233   60.3091 C.3     1  ZINC000938043669   -0.1400
     15 C15       -11.5955   -2.6104   60.3590 C.3     1  ZINC000938043669    0.1300
     16 H16       -12.0133   -3.2923   61.0996 H       1  ZINC000938043669    0.1100
     17 N17       -12.1825   -2.8503   59.0384 N.am    1  ZINC000938043669   -0.7200
     18 C18       -13.4932   -3.1434   58.9267 C.2     1  ZINC000938043669    0.5200
     19 O19       -14.1872   -3.2071   59.9193 O.2     1  ZINC000938043669   -0.5200
     20 C20       -14.0967   -3.3920   57.5683 C.3     1  ZINC000938043669   -0.1000
     21 H21       -14.8547   -2.6360   57.3640 H       1  ZINC000938043669    0.1000
     22 C22       -14.7410   -4.7799   57.5430 C.3     1  ZINC000938043669   -0.1100
     23 C23       -14.0752   -5.6352   56.4574 C.3     1  ZINC000938043669   -0.0600
     24 H24       -14.4842   -6.6456   56.4565 H       1  ZINC000938043669    0.0800
     25 C25       -12.5793   -5.6588   56.7345 C.2     1  ZINC000938043669   -0.1800
     26 C26       -12.0189   -4.4518   56.7565 C.2     1  ZINC000938043669   -0.1300
     27 C27       -12.9986   -3.3167   56.4997 C.3     1  ZINC000938043669   -0.0400
     28 H28       -12.4888   -2.3535   56.5229 H       1  ZINC000938043669    0.0900
     29 C29       -13.6432   -3.5586   55.1279 C.3     1  ZINC000938043669   -0.1200
     30 C30       -14.3027   -4.9549   55.1003 C.3     1  ZINC000938043669   -0.1100
     31 C31       -11.7880   -1.1391   60.7961 C.3     1  ZINC000938043669    0.1000
     32 H32        -9.0393   -0.7603   63.7738 H       1  ZINC000938043669    0.1000
     33 H33        -8.7914    0.8987   63.1782 H       1  ZINC000938043669    0.1000
     34 H34        -7.3839    0.2459   64.5795 H       1  ZINC000938043669    0.1400
     35 H35        -5.6526    0.6032   66.2927 H       1  ZINC000938043669    0.1300
     36 H36        -6.2707    1.4816   68.5063 H       1  ZINC000938043669    0.1400
     37 H37        -8.6219    2.0045   69.0150 H       1  ZINC000938043669    0.1500
     38 H38        -8.6988   -1.2739   61.1981 H       1  ZINC000938043669    0.0800
     39 H39        -9.4050   -2.4298   62.3616 H       1  ZINC000938043669    0.0800
     40 H40        -9.6651   -2.3461   59.3611 H       1  ZINC000938043669    0.0900
     41 H41        -9.7319   -3.7534   60.4722 H       1  ZINC000938043669    0.1000
     42 H42       -11.6278   -2.7981   58.2443 H       1  ZINC000938043669    0.4000
     43 H43       -14.6103   -5.2586   58.5134 H       1  ZINC000938043669    0.0700
     44 H44       -15.8049   -4.6824   57.3268 H       1  ZINC000938043669    0.0800
     45 H45       -12.0237   -6.5703   56.8982 H       1  ZINC000938043669    0.1200
     46 H46       -10.9666   -4.2929   56.9403 H       1  ZINC000938043669    0.1200
     47 H47       -14.4055   -2.8011   54.9462 H       1  ZINC000938043669    0.0700
     48 H48       -12.8796   -3.4984   54.3523 H       1  ZINC000938043669    0.0700
     49 H49       -13.8470   -5.5562   54.3136 H       1  ZINC000938043669    0.0700
     50 H50       -15.3695   -4.8488   54.9042 H       1  ZINC000938043669    0.0700
     51 H51       -12.7560   -1.0109   61.2805 H       1  ZINC000938043669    0.0900
     52 H52       -11.7016   -0.4737   59.9371 H       1  ZINC000938043669    0.0700
@<TRIPOS>BOND
     1     1     2    2
     2     2     3    1
     3     2    12   am
     4     3     4    1
     5     3    32    1
     6     3    33    1
     7     4     5    1
     8     5    10   ar
     9     5     6   ar
    10     6     7   ar
    11     6    34    1
    12     7     8   ar
    13     7    35    1
    14     8     9   ar
    15     8    36    1
    16     9    10   ar
    17     9    37    1
    18    10    11    1
    19    12    31    1
    20    12    13    1
    21    13    14    1
    22    13    38    1
    23    13    39    1
    24    14    15    1
    25    14    40    1
    26    14    41    1
    27    15    16    1
    28    15    17    1
    29    15    31    1
    30    17    18   am
    31    17    42    1
    32    18    19    2
    33    18    20    1
    34    20    21    1
    35    20    27    1
    36    20    22    1
    37    22    23    1
    38    22    43    1
    39    22    44    1
    40    23    24    1
    41    23    30    1
    42    23    25    1
    43    25    26    2
    44    25    45    1
    45    26    27    1
    46    26    46    1
    47    27    28    1
    48    27    29    1
    49    29    30    1
    50    29    47    1
    51    29    48    1
    52    30    49    1
    53    30    50    1
    54    31    51    1
    55    31    52    1
@<TRIPOS>SUBSTRUCTURE
     1 ZINC000938043669        1 TEMP              0 ****  ****    0 ROOT


##########                                Name:    ZINC001041713551
##########                DOCK_Rotatable_Bonds:                  10
##########                         Heavy_Atoms:                  22
##########                    Molecular_Weight:             330.448
##########                DOCK_Rotatable_Bonds:                  10
##########                       Formal_Charge:          -0.0100006
##########                     HBond_Acceptors:                   7
##########                        HBond_Donors:                   2
##########                         Heavy_Atoms:                  22
##########                          Grid_Score:          -33.208302
##########                     Grid_vdw_energy:          -31.161865
##########                      Grid_es_energy:           -2.046436
##########           Internal_energy_repulsive:            5.349749

@<TRIPOS>MOLECULE
ZINC001041713551
 48 49 1 0 0
SMALL
USER_CHARGES


@<TRIPOS>ATOM
      1 C1         -7.4114    2.4526   66.6696 C.3     1  ZINC001041713551   -0.1500
      2 C2         -7.1039    0.9575   66.5627 C.3     1  ZINC001041713551   -0.1100
      3 C3         -8.3349    0.1523   66.9837 C.3     1  ZINC001041713551   -0.1000
      4 S4         -9.6804    0.4427   65.8023 S.3     1  ZINC001041713551   -0.1800
      5 C5         -9.1367   -0.4698   64.3319 C.3     1  ZINC001041713551   -0.1300
      6 C6        -10.2194   -0.4260   63.2846 C.2     1  ZINC001041713551    0.5300
      7 O7        -11.3670   -0.2042   63.6078 O.2     1  ZINC001041713551   -0.5100
      8 N8         -9.9122   -0.6334   61.9888 N.am    1  ZINC001041713551   -0.7300
      9 C9        -10.9645   -0.5891   60.9704 C.3     1  ZINC001041713551    0.1000
     10 C10       -10.5709   -1.4810   59.7913 C.3     1  ZINC001041713551    0.0900
     11 O11        -9.1711   -1.4424   59.5064 O.3     1  ZINC001041713551   -0.5200
     12 C12       -11.1506   -2.9050   59.8706 C.3     1  ZINC001041713551    0.0900
     13 N13       -11.4249   -2.7657   58.4273 N.am    1  ZINC001041713551   -0.6400
     14 C14       -11.5798   -3.6329   57.4072 C.2     1  ZINC001041713551    0.5500
     15 O15       -11.4960   -4.8261   57.6077 O.2     1  ZINC001041713551   -0.5100
     16 C16       -11.8573   -3.1200   56.0177 C.3     1  ZINC001041713551    0.0800
     17 H17       -11.2993   -2.1985   55.8522 H       1  ZINC001041713551    0.0800
     18 C18       -13.3554   -2.8440   55.8651 C.3     1  ZINC001041713551   -0.1500
     19 C19       -13.6380   -2.3806   54.4326 C.3     1  ZINC001041713551   -0.1200
     20 C20       -13.1412   -3.4497   53.4546 C.3     1  ZINC001041713551   -0.1600
     21 C21       -11.6514   -3.7023   53.7003 C.3     1  ZINC001041713551    0.0600
     22 O22       -11.4545   -4.0999   55.0587 O.3     1  ZINC001041713551   -0.3600
     23 C23       -11.4615   -1.2954   58.5494 C.3     1  ZINC001041713551    0.1200
     24 H24        -7.6710    2.6974   67.6996 H       1  ZINC001041713551    0.0600
     25 H25        -6.5345    3.0262   66.3697 H       1  ZINC001041713551    0.0600
     26 H26        -8.2479    2.6991   66.0157 H       1  ZINC001041713551    0.0600
     27 H27        -6.8444    0.7127   65.5328 H       1  ZINC001041713551    0.0700
     28 H28        -6.2674    0.7110   67.2167 H       1  ZINC001041713551    0.0700
     29 H29        -8.0871   -0.9091   66.9985 H       1  ZINC001041713551    0.0800
     30 H30        -8.6511    0.4655   67.9786 H       1  ZINC001041713551    0.0800
     31 H31        -8.2294   -0.0133   63.9360 H       1  ZINC001041713551    0.1100
     32 H32        -8.9340   -1.5062   64.6019 H       1  ZINC001041713551    0.1100
     33 H33        -8.9945   -0.8121   61.7305 H       1  ZINC001041713551    0.4000
     34 H34       -11.9006   -0.9463   61.3996 H       1  ZINC001041713551    0.0900
     35 H35       -11.0916    0.4364   60.6237 H       1  ZINC001041713551    0.0900
     36 H36        -8.6088   -1.6249   60.2717 H       1  ZINC001041713551    0.3800
     37 H37       -10.4091   -3.6688   60.1053 H       1  ZINC001041713551    0.0900
     38 H38       -12.0489   -2.9801   60.4833 H       1  ZINC001041713551    0.1000
     39 H39       -13.9166   -3.7557   56.0703 H       1  ZINC001041713551    0.0800
     40 H40       -13.6555   -2.0649   56.5658 H       1  ZINC001041713551    0.0800
     41 H41       -14.7103   -2.2360   54.3010 H       1  ZINC001041713551    0.0700
     42 H42       -13.1162   -1.4425   54.2432 H       1  ZINC001041713551    0.0700
     43 H43       -13.6980   -4.3736   53.6111 H       1  ZINC001041713551    0.0700
     44 H44       -13.2881   -3.1038   52.4314 H       1  ZINC001041713551    0.0800
     45 H45       -11.3023   -4.4929   53.0359 H       1  ZINC001041713551    0.1000
     46 H46       -11.0905   -2.7885   53.5043 H       1  ZINC001041713551    0.0500
     47 H47       -12.4511   -0.8977   58.7740 H       1  ZINC001041713551    0.1100
     48 H48       -10.9681   -0.7740   57.7290 H       1  ZINC001041713551    0.1000
@<TRIPOS>BOND
     1     1     2    1
     2     1    24    1
     3     1    25    1
     4     1    26    1
     5     2     3    1
     6     2    27    1
     7     2    28    1
     8     3     4    1
     9     3    29    1
    10     3    30    1
    11     4     5    1
    12     5     6    1
    13     5    31    1
    14     5    32    1
    15     6     7    2
    16     6     8   am
    17     8     9    1
    18     8    33    1
    19     9    10    1
    20     9    34    1
    21     9    35    1
    22    10    23    1
    23    10    11    1
    24    10    12    1
    25    11    36    1
    26    12    13    1
    27    12    37    1
    28    12    38    1
    29    13    14   am
    30    13    23    1
    31    14    15    2
    32    14    16    1
    33    16    17    1
    34    16    22    1
    35    16    18    1
    36    18    19    1
    37    18    39    1
    38    18    40    1
    39    19    20    1
    40    19    41    1
    41    19    42    1
    42    20    21    1
    43    20    43    1
    44    20    44    1
    45    21    22    1
    46    21    45    1
    47    21    46    1
    48    23    47    1
    49    23    48    1
@<TRIPOS>SUBSTRUCTURE
     1 ZINC001041713551        1 TEMP              0 ****  ****    0 ROOT


##########                                Name:    ZINC001060578637
##########                DOCK_Rotatable_Bonds:                  10
##########                         Heavy_Atoms:                  25
##########                    Molecular_Weight:             345.401
##########                DOCK_Rotatable_Bonds:                  10
##########                       Formal_Charge:          -0.0400001
##########                     HBond_Acceptors:                   8
##########                        HBond_Donors:                   3
##########                         Heavy_Atoms:                  25
##########                          Grid_Score:          -33.171452
##########                     Grid_vdw_energy:          -28.875147
##########                      Grid_es_energy:           -4.296306
##########           Internal_energy_repulsive:           12.421051

@<TRIPOS>MOLECULE
ZINC001060578637
 48 49 1 0 0
SMALL
USER_CHARGES


@<TRIPOS>ATOM
      1 C1        -16.1513   -2.9754   54.0938 C.3     1  ZINC001060578637   -0.1500
      2 C2        -15.0591   -3.7898   53.3977 C.3     1  ZINC001060578637   -0.1300
      3 C3        -13.6926   -3.1691   53.6944 C.3     1  ZINC001060578637    0.0700
      4 H4        -13.8229   -2.1281   53.9903 H       1  ZINC001060578637    0.0900
      5 O5        -12.8761   -3.2327   52.5234 O.3     1  ZINC001060578637   -0.3600
      6 C6        -13.1402   -2.1980   51.5737 C.3     1  ZINC001060578637    0.0300
      7 C7        -13.0273   -3.9296   54.8124 C.2     1  ZINC001060578637    0.5000
      8 O8        -11.8283   -4.1108   54.7932 O.2     1  ZINC001060578637   -0.5200
      9 N9        -13.7650   -4.4086   55.8337 N.am    1  ZINC001060578637   -0.7300
     10 C10       -13.1181   -5.1466   56.9215 C.3     1  ZINC001060578637    0.1600
     11 C11       -12.2162   -4.2173   57.6922 C.ar    1  ZINC001060578637   -0.1100
     12 C12       -12.7325   -3.0694   58.2637 C.ar    1  ZINC001060578637   -0.0900
     13 C13       -11.9051   -2.2169   58.9706 C.ar    1  ZINC001060578637   -0.1100
     14 C14       -10.5617   -2.5127   59.1066 C.ar    1  ZINC001060578637   -0.0900
     15 C15        -9.6596   -1.5832   59.8768 C.3     1  ZINC001060578637    0.1800
     16 H16        -8.6209   -1.8777   59.7263 H       1  ZINC001060578637    0.1000
     17 C17       -10.0005   -1.6598   61.3664 C.3     1  ZINC001060578637   -0.1600
     18 N18        -9.8519   -0.2109   59.4017 N.am    1  ZINC001060578637   -0.7000
     19 C19        -9.4870    0.1259   58.1488 C.2     1  ZINC001060578637    0.6100
     20 O20        -8.9966   -0.7090   57.4132 O.2     1  ZINC001060578637   -0.5300
     21 C21        -9.6822    1.5068   57.6700 C.2     1  ZINC001060578637    0.1200
     22 N22        -9.7180    1.9032   56.4158 N.2     1  ZINC001060578637   -0.2400
     23 N23        -9.9056    3.1746   56.3737 N.2     1  ZINC001060578637   -0.2900
     24 C24        -9.9990    3.6535   57.5902 C.2     1  ZINC001060578637    0.1900
     25 N25        -9.8669    2.6214   58.4469 N.pl3   1  ZINC001060578637   -0.5500
     26 C26       -10.0457   -3.6614   58.5363 C.ar    1  ZINC001060578637   -0.1100
     27 C27       -10.8737   -4.5157   57.8326 C.ar    1  ZINC001060578637   -0.0900
     28 H28       -17.1218   -3.4355   53.9080 H       1  ZINC001060578637    0.0600
     29 H29       -15.9595   -2.9525   55.1665 H       1  ZINC001060578637    0.0500
     30 H30       -16.1508   -1.9579   53.7028 H       1  ZINC001060578637    0.0600
     31 H31       -15.0800   -4.8154   53.7663 H       1  ZINC001060578637    0.0800
     32 H32       -15.2336   -3.7868   52.3217 H       1  ZINC001060578637    0.0800
     33 H33       -12.4290   -2.2699   50.7508 H       1  ZINC001060578637    0.0900
     34 H34       -14.1539   -2.3085   51.1886 H       1  ZINC001060578637    0.0500
     35 H35       -13.0391   -1.2264   52.0575 H       1  ZINC001060578637    0.0400
     36 H36       -14.7241   -4.2648   55.8484 H       1  ZINC001060578637    0.4000
     37 H37       -13.8790   -5.5510   57.5890 H       1  ZINC001060578637    0.0800
     38 H38       -12.5281   -5.9635   56.5058 H       1  ZINC001060578637    0.0800
     39 H39       -13.7821   -2.8383   58.1576 H       1  ZINC001060578637    0.1300
     40 H40       -12.3083   -1.3197   59.4165 H       1  ZINC001060578637    0.1300
     41 H41       -11.0391   -1.3654   61.5169 H       1  ZINC001060578637    0.0600
     42 H42        -9.8574   -2.6809   61.7199 H       1  ZINC001060578637    0.0700
     43 H43        -9.3480   -0.9875   61.9235 H       1  ZINC001060578637    0.0700
     44 H44       -10.2420    0.4554   59.9889 H       1  ZINC001060578637    0.4100
     45 H45       -10.1572    4.6878   57.8577 H       1  ZINC001060578637    0.2300
     46 H46        -9.8917    2.6602   59.4157 H       1  ZINC001060578637    0.4400
     47 H47        -8.9962   -3.8926   58.6428 H       1  ZINC001060578637    0.1300
     48 H48       -10.4706   -5.4132   57.3869 H       1  ZINC001060578637    0.1300
@<TRIPOS>BOND
     1     1     2    1
     2     1    28    1
     3     1    29    1
     4     1    30    1
     5     2     3    1
     6     2    31    1
     7     2    32    1
     8     3     4    1
     9     3     5    1
    10     3     7    1
    11     5     6    1
    12     6    33    1
    13     6    34    1
    14     6    35    1
    15     7     8    2
    16     7     9   am
    17     9    10    1
    18     9    36    1
    19    10    11    1
    20    10    37    1
    21    10    38    1
    22    11    27   ar
    23    11    12   ar
    24    12    13   ar
    25    12    39    1
    26    13    14   ar
    27    13    40    1
    28    14    15    1
    29    14    26   ar
    30    15    16    1
    31    15    17    1
    32    15    18    1
    33    17    41    1
    34    17    42    1
    35    17    43    1
    36    18    19   am
    37    18    44    1
    38    19    20    2
    39    19    21    1
    40    21    25    1
    41    21    22    2
    42    22    23    1
    43    23    24    2
    44    24    25    1
    45    24    45    1
    46    25    46    1
    47    26    27   ar
    48    26    47    1
    49    27    48    1
@<TRIPOS>SUBSTRUCTURE
     1 ZINC001060578637        1 TEMP              0 ****  ****    0 ROOT


##########                                Name:    ZINC001067560454
##########                DOCK_Rotatable_Bonds:                   4
##########                         Heavy_Atoms:                  25
##########                    Molecular_Weight:             342.444
##########                DOCK_Rotatable_Bonds:                   4
##########                       Formal_Charge:          0.00999971
##########                     HBond_Acceptors:                   7
##########                        HBond_Donors:                   1
##########                         Heavy_Atoms:                  25
##########                          Grid_Score:          -33.166470
##########                     Grid_vdw_energy:          -31.671186
##########                      Grid_es_energy:           -1.495284
##########           Internal_energy_repulsive:           14.674141

@<TRIPOS>MOLECULE
ZINC001067560454
 51 54 1 0 0
SMALL
USER_CHARGES


@<TRIPOS>ATOM
      1 C1        -14.1675   -2.1619   56.1469 C.3     1  ZINC001067560454   -0.1500
      2 C2        -13.5572   -2.8264   54.9111 C.3     1  ZINC001067560454    0.1000
      3 H3        -13.8672   -3.8706   54.8699 H       1  ZINC001067560454    0.0600
      4 C4        -14.0385   -2.1014   53.6523 C.3     1  ZINC001067560454   -0.1200
      5 C5        -13.4097   -2.7571   52.4197 C.3     1  ZINC001067560454    0.1400
      6 H6        -13.7386   -3.7941   52.3510 H       1  ZINC001067560454    0.0900
      7 N7        -13.8221   -2.0319   51.2154 N.am    1  ZINC001067560454   -0.7200
      8 C8        -14.9680   -2.3636   50.5883 C.2     1  ZINC001067560454    0.5400
      9 O9        -15.6571   -3.2633   51.0201 O.2     1  ZINC001067560454   -0.5300
     10 C10       -15.3931   -1.6165   49.3504 C.3     1  ZINC001067560454   -0.1100
     11 C11       -16.4265   -2.3809   48.5206 C.3     1  ZINC001067560454   -0.1300
     12 C12       -15.7758   -0.1510   49.6165 C.3     1  ZINC001067560454   -0.1200
     13 C13       -14.2961    0.1959   49.3823 C.3     1  ZINC001067560454   -0.1400
     14 C14       -14.2154   -1.0763   48.5221 C.3     1  ZINC001067560454   -0.1200
     15 C15       -11.8847   -2.7114   52.5491 C.3     1  ZINC001067560454   -0.1200
     16 C16       -11.4658   -3.4187   53.8400 C.3     1  ZINC001067560454    0.0600
     17 N17       -12.0927   -2.7536   54.9894 N.3     1  ZINC001067560454   -0.4900
     18 C18       -11.6329   -3.2854   56.1815 C.ar    1  ZINC001067560454    0.4400
     19 C19       -11.0093   -2.4687   57.1399 C.ar    1  ZINC001067560454   -0.0800
     20 N20       -10.7036   -1.1511   57.2149 N.2     1  ZINC001067560454   -0.4700
     21 C21       -10.1132   -0.9073   58.3488 C.2     1  ZINC001067560454    0.2700
     22 N22       -10.0033   -2.0569   59.0733 N.pl3   1  ZINC001067560454   -0.4800
     23 C23        -9.3984   -2.1904   60.4009 C.3     1  ZINC001067560454    0.0800
     24 C24       -10.5637   -3.0658   58.3314 C.ar    1  ZINC001067560454    0.2800
     25 N25       -10.7468   -4.3701   58.5079 N.ar    1  ZINC001067560454   -0.5200
     26 C26       -11.3369   -5.0962   57.5819 C.ar    1  ZINC001067560454    0.3300
     27 N27       -11.7759   -4.5794   56.4489 N.ar    1  ZINC001067560454   -0.5100
     28 H28       -13.8575   -1.1177   56.1883 H       1  ZINC001067560454    0.0700
     29 H29       -15.2545   -2.2162   56.0891 H       1  ZINC001067560454    0.0700
     30 H30       -13.8250   -2.6783   57.0436 H       1  ZINC001067560454    0.0500
     31 H31       -15.1245   -2.1689   53.5863 H       1  ZINC001067560454    0.0800
     32 H32       -13.7406   -1.0540   53.6991 H       1  ZINC001067560454    0.0800
     33 H33       -13.2703   -1.3131   50.8694 H       1  ZINC001067560454    0.4000
     34 H34       -17.2408   -2.7085   49.1667 H       1  ZINC001067560454    0.0600
     35 H35       -16.8208   -1.7288   47.7412 H       1  ZINC001067560454    0.0700
     36 H36       -15.9539   -3.2498   48.0627 H       1  ZINC001067560454    0.0600
     37 H37       -16.4466    0.2681   48.8664 H       1  ZINC001067560454    0.0900
     38 H38       -16.1116    0.0342   50.6368 H       1  ZINC001067560454    0.0700
     39 H39       -14.1475    1.1156   48.8166 H       1  ZINC001067560454    0.0700
     40 H40       -13.6888    0.1510   50.2863 H       1  ZINC001067560454    0.0800
     41 H41       -13.2913   -1.6380   48.6589 H       1  ZINC001067560454    0.0800
     42 H42       -14.4595   -0.9102   47.4728 H       1  ZINC001067560454    0.0900
     43 H43       -11.4318   -3.2147   51.6950 H       1  ZINC001067560454    0.0800
     44 H44       -11.5529   -1.6735   52.5787 H       1  ZINC001067560454    0.0800
     45 H45       -11.7858   -4.4600   53.8038 H       1  ZINC001067560454    0.0700
     46 H46       -10.3815   -3.3754   53.9424 H       1  ZINC001067560454    0.0800
     47 H47        -9.7618    0.0625   58.6685 H       1  ZINC001067560454    0.2300
     48 H48       -10.1607   -2.0363   61.1647 H       1  ZINC001067560454    0.0800
     49 H49        -8.9734   -3.1883   60.5078 H       1  ZINC001067560454    0.0900
     50 H50        -8.6111   -1.4457   60.5180 H       1  ZINC001067560454    0.0900
     51 H51       -11.4701   -6.1536   57.7569 H       1  ZINC001067560454    0.2100
@<TRIPOS>BOND
     1     1     2    1
     2     1    28    1
     3     1    29    1
     4     1    30    1
     5     2     3    1
     6     2    17    1
     7     2     4    1
     8     4     5    1
     9     4    31    1
    10     4    32    1
    11     5     6    1
    12     5     7    1
    13     5    15    1
    14     7     8   am
    15     7    33    1
    16     8     9    2
    17     8    10    1
    18    10    14    1
    19    10    11    1
    20    10    12    1
    21    11    34    1
    22    11    35    1
    23    11    36    1
    24    12    13    1
    25    12    37    1
    26    12    38    1
    27    13    14    1
    28    13    39    1
    29    13    40    1
    30    14    41    1
    31    14    42    1
    32    15    16    1
    33    15    43    1
    34    15    44    1
    35    16    17    1
    36    16    45    1
    37    16    46    1
    38    17    18    1
    39    18    27   ar
    40    18    19   ar
    41    19    24   ar
    42    19    20    1
    43    20    21    2
    44    21    22    1
    45    21    47    1
    46    22    23    1
    47    22    24    1
    48    23    48    1
    49    23    49    1
    50    23    50    1
    51    24    25   ar
    52    25    26   ar
    53    26    27   ar
    54    26    51    1
@<TRIPOS>SUBSTRUCTURE
     1 ZINC001067560454        1 TEMP              0 ****  ****    0 ROOT


##########                                Name:    ZINC001053792610
##########                DOCK_Rotatable_Bonds:                   5
##########                         Heavy_Atoms:                  25
##########                    Molecular_Weight:             347.374
##########                DOCK_Rotatable_Bonds:                   5
##########                       Formal_Charge:          -0.0400001
##########                     HBond_Acceptors:                   9
##########                        HBond_Donors:                   2
##########                         Heavy_Atoms:                  25
##########                          Grid_Score:          -33.149403
##########                     Grid_vdw_energy:          -29.338127
##########                      Grid_es_energy:           -3.811276
##########           Internal_energy_repulsive:            7.081192

@<TRIPOS>MOLECULE
ZINC001053792610
 46 49 1 0 0
SMALL
USER_CHARGES


@<TRIPOS>ATOM
      1 C1        -13.6201   -4.7648   53.7740 C.3     1  ZINC001053792610   -0.1000
      2 C2        -12.8116   -4.5345   55.0248 C.ar    1  ZINC001053792610    0.0800
      3 C3        -12.9809   -5.3624   56.1202 C.ar    1  ZINC001053792610    0.0600
      4 N4        -12.2720   -5.1603   57.2170 N.ar    1  ZINC001053792610   -0.4200
      5 C5        -11.4016   -4.1677   57.2675 C.ar    1  ZINC001053792610    0.0800
      6 C6        -10.5928   -3.9375   58.5181 C.3     1  ZINC001053792610    0.0700
      7 N7        -10.4401   -2.4940   58.7438 N.3     1  ZINC001053792610   -0.4500
      8 C8        -10.1783   -2.2061   60.1678 C.3     1  ZINC001053792610   -0.0100
      9 C9        -11.1414   -1.0272   60.0440 C.3     1  ZINC001053792610    0.0800
     10 C10       -11.7544   -1.8421   58.9070 C.3     1  ZINC001053792610   -0.0100
     11 C11       -12.0585   -0.8013   61.2563 C.3     1  ZINC001053792610   -0.1500
     12 C12       -11.5067    0.5324   61.8341 C.3     1  ZINC001053792610    0.1100
     13 H13       -12.2886    1.0902   62.3495 H       1  ZINC001053792610    0.1200
     14 N14       -10.3643    0.2915   62.7190 N.am    1  ZINC001053792610   -0.7100
     15 C15       -10.0054    1.2225   63.6249 C.2     1  ZINC001053792610    0.5000
     16 O16       -10.6290    2.2594   63.7085 O.2     1  ZINC001053792610   -0.5100
     17 C17        -8.8292    0.9754   64.5340 C.3     1  ZINC001053792610    0.0800
     18 H18        -7.9033    1.2952   64.0559 H       1  ZINC001053792610    0.1300
     19 C19        -9.0227    1.7018   65.8791 C.3     1  ZINC001053792610    0.0500
     20 O20        -9.0384    0.6261   66.8618 O.3     1  ZINC001053792610   -0.3200
     21 C21        -8.8834   -0.5482   66.2402 C.2     1  ZINC001053792610    0.6500
     22 O22        -8.8605   -1.6115   66.8278 O.2     1  ZINC001053792610   -0.5100
     23 N23        -8.7541   -0.4454   64.9071 N.am    1  ZINC001053792610   -0.7100
     24 C24       -11.0659    1.2581   60.5371 C.3     1  ZINC001053792610    0.0400
     25 O25       -10.5602    0.2203   59.6780 O.3     1  ZINC001053792610   -0.3300
     26 C26       -11.2323   -3.3394   56.1719 C.ar    1  ZINC001053792610    0.0600
     27 N27       -11.9372   -3.5448   55.0734 N.ar    1  ZINC001053792610   -0.4400
     28 H28       -13.0842   -5.4487   53.1158 H       1  ZINC001053792610    0.0800
     29 H29       -14.5848   -5.1974   54.0395 H       1  ZINC001053792610    0.0800
     30 H30       -13.7761   -3.8152   53.2622 H       1  ZINC001053792610    0.0800
     31 H31       -13.6926   -6.1736   56.0789 H       1  ZINC001053792610    0.1700
     32 H32       -11.1047   -4.3863   59.3695 H       1  ZINC001053792610    0.1000
     33 H33        -9.6094   -4.3935   58.4039 H       1  ZINC001053792610    0.0600
     34 H34       -10.5313   -2.9870   60.8413 H       1  ZINC001053792610    0.0800
     35 H35        -9.1494   -1.9077   60.3690 H       1  ZINC001053792610    0.0900
     36 H36       -12.0495   -1.2379   58.0490 H       1  ZINC001053792610    0.1000
     37 H37       -12.5399   -2.5231   59.2345 H       1  ZINC001053792610    0.0800
     38 H38       -13.0968   -0.6903   60.9437 H       1  ZINC001053792610    0.1000
     39 H39       -11.9553   -1.6109   61.9787 H       1  ZINC001053792610    0.1000
     40 H40        -9.8664   -0.5383   62.6530 H       1  ZINC001053792610    0.4000
     41 H41        -8.1918    2.3812   66.0695 H       1  ZINC001053792610    0.1200
     42 H42        -9.9693    2.2422   65.8889 H       1  ZINC001053792610    0.1100
     43 H43        -8.6339   -1.1868   64.2932 H       1  ZINC001053792610    0.4400
     44 H44       -11.9187    1.7522   60.0716 H       1  ZINC001053792610    0.0800
     45 H45       -10.2818    1.9826   60.7569 H       1  ZINC001053792610    0.0900
     46 H46       -10.5208   -2.5279   56.2131 H       1  ZINC001053792610    0.1600
@<TRIPOS>BOND
     1     1     2    1
     2     1    28    1
     3     1    29    1
     4     1    30    1
     5     2    27   ar
     6     2     3   ar
     7     3     4   ar
     8     3    31    1
     9     4     5   ar
    10     5     6    1
    11     5    26   ar
    12     6     7    1
    13     6    32    1
    14     6    33    1
    15     7    10    1
    16     7     8    1
    17     8     9    1
    18     8    34    1
    19     8    35    1
    20     9    25    1
    21     9    10    1
    22     9    11    1
    23    10    36    1
    24    10    37    1
    25    11    12    1
    26    11    38    1
    27    11    39    1
    28    12    13    1
    29    12    14    1
    30    12    24    1
    31    14    15   am
    32    14    40    1
    33    15    16    2
    34    15    17    1
    35    17    18    1
    36    17    23    1
    37    17    19    1
    38    19    20    1
    39    19    41    1
    40    19    42    1
    41    20    21    1
    42    21    22    2
    43    21    23   am
    44    23    43    1
    45    24    25    1
    46    24    44    1
    47    24    45    1
    48    26    27   ar
    49    26    46    1
@<TRIPOS>SUBSTRUCTURE
     1 ZINC001053792610        1 TEMP              0 ****  ****    0 ROOT


##########                                Name:    ZINC000863246516
##########                DOCK_Rotatable_Bonds:                   5
##########                         Heavy_Atoms:                  25
##########                    Molecular_Weight:             356.489
##########                DOCK_Rotatable_Bonds:                   5
##########                       Formal_Charge:         -0.00999938
##########                     HBond_Acceptors:                   5
##########                        HBond_Donors:                   0
##########                         Heavy_Atoms:                  25
##########                          Grid_Score:          -33.144775
##########                     Grid_vdw_energy:          -32.917198
##########                      Grid_es_energy:           -0.227576
##########           Internal_energy_repulsive:           10.166080

@<TRIPOS>MOLECULE
ZINC000863246516
 49 52 1 0 0
SMALL
USER_CHARGES


@<TRIPOS>ATOM
      1 C1        -15.3431   -2.2377   51.1790 C.3     1  ZINC000863246516   -0.0600
      2 C2        -13.9726   -2.4186   51.7792 C.2     1  ZINC000863246516   -0.2000
      3 C3        -13.6523   -3.1264   52.8534 C.2     1  ZINC000863246516    0.0900
      4 C4        -14.6923   -3.8772   53.6445 C.3     1  ZINC000863246516   -0.1000
      5 N5        -12.3360   -3.1418   53.2069 N.am    1  ZINC000863246516   -0.5300
      6 C6        -11.8687   -3.8912   54.3758 C.3     1  ZINC000863246516    0.1200
      7 C7        -11.9143   -2.9897   55.6111 C.3     1  ZINC000863246516   -0.1500
      8 C8        -11.4252   -3.7579   56.8119 C.2     1  ZINC000863246516    0.5400
      9 O9        -11.5695   -4.9610   56.8621 O.2     1  ZINC000863246516   -0.5300
     10 N10       -10.8274   -3.1078   57.8300 N.am    1  ZINC000863246516   -0.6100
     11 C11       -10.3090   -3.7366   59.0502 C.3     1  ZINC000863246516    0.1100
     12 C12        -9.3326   -2.7295   59.6873 C.3     1  ZINC000863246516   -0.1300
     13 H13        -8.2751   -2.9386   59.5267 H       1  ZINC000863246516    0.1000
     14 C14        -9.7391   -2.3132   61.1107 C.3     1  ZINC000863246516   -0.1200
     15 C15       -10.7761   -1.3802   60.4648 C.3     1  ZINC000863246516   -0.0600
     16 H16       -11.7418   -1.8552   60.2917 H       1  ZINC000863246516    0.1000
     17 C17       -10.8965   -0.0448   61.1528 C.ar    1  ZINC000863246516   -0.0700
     18 C18       -11.1584    1.0929   60.4126 C.ar    1  ZINC000863246516   -0.1200
     19 C19       -11.2688    2.3178   61.0437 C.ar    1  ZINC000863246516   -0.1200
     20 C20       -11.1178    2.4051   62.4150 C.ar    1  ZINC000863246516   -0.1200
     21 C21       -10.8569    1.2671   63.1553 C.ar    1  ZINC000863246516   -0.1200
     22 C22       -10.7507    0.0415   62.5247 C.ar    1  ZINC000863246516   -0.1200
     23 C23        -9.8615   -1.3549   59.2070 C.3     1  ZINC000863246516   -0.1100
     24 H24        -9.1386   -0.5405   59.1615 H       1  ZINC000863246516    0.1200
     25 C25       -10.5877   -1.6622   57.8889 C.3     1  ZINC000863246516    0.1200
     26 C26       -11.4854   -2.4423   52.4392 C.2     1  ZINC000863246516    0.4800
     27 O27       -10.2813   -2.3329   52.5891 O.2     1  ZINC000863246516   -0.4700
     28 S28       -12.4446   -1.7369   51.1949 S.3     1  ZINC000863246516    0.0100
     29 H29       -15.2720   -1.6023   50.2961 H       1  ZINC000863246516    0.0700
     30 H30       -15.7469   -3.2096   50.8955 H       1  ZINC000863246516    0.0800
     31 H31       -16.0015   -1.7701   51.9110 H       1  ZINC000863246516    0.0800
     32 H32       -15.6718   -3.7289   53.1897 H       1  ZINC000863246516    0.0900
     33 H33       -14.4499   -4.9398   53.6468 H       1  ZINC000863246516    0.0800
     34 H34       -14.7075   -3.5058   54.6692 H       1  ZINC000863246516    0.0800
     35 H35       -12.5123   -4.7566   54.5336 H       1  ZINC000863246516    0.1000
     36 H36       -10.8450   -4.2254   54.2075 H       1  ZINC000863246516    0.1000
     37 H37       -11.2757   -2.1210   55.4508 H       1  ZINC000863246516    0.1000
     38 H38       -12.9391   -2.6605   55.7831 H       1  ZINC000863246516    0.1000
     39 H39       -11.1279   -3.9480   59.7379 H       1  ZINC000863246516    0.0700
     40 H40        -9.7836   -4.6584   58.8006 H       1  ZINC000863246516    0.0800
     41 H41       -10.1824   -3.1219   61.6915 H       1  ZINC000863246516    0.0800
     42 H42        -8.9540   -1.7845   61.6512 H       1  ZINC000863246516    0.0900
     43 H43       -11.2763    1.0249   59.3413 H       1  ZINC000863246516    0.1200
     44 H44       -11.4727    3.2069   60.4653 H       1  ZINC000863246516    0.1200
     45 H45       -11.2034    3.3621   62.9079 H       1  ZINC000863246516    0.1200
     46 H46       -10.7385    1.3352   64.2266 H       1  ZINC000863246516    0.1200
     47 H47       -10.5467   -0.8475   63.1031 H       1  ZINC000863246516    0.1200
     48 H48        -9.9747   -1.3411   57.0468 H       1  ZINC000863246516    0.0700
     49 H49       -11.5460   -1.1432   57.8664 H       1  ZINC000863246516    0.0700
@<TRIPOS>BOND
     1     1     2    1
     2     1    29    1
     3     1    30    1
     4     1    31    1
     5     2    28    1
     6     2     3    2
     7     3     4    1
     8     3     5    1
     9     4    32    1
    10     4    33    1
    11     4    34    1
    12     5     6    1
    13     5    26   am
    14     6     7    1
    15     6    35    1
    16     6    36    1
    17     7     8    1
    18     7    37    1
    19     7    38    1
    20     8     9    2
    21     8    10   am
    22    10    25    1
    23    10    11    1
    24    11    12    1
    25    11    39    1
    26    11    40    1
    27    12    13    1
    28    12    23    1
    29    12    14    1
    30    14    15    1
    31    14    41    1
    32    14    42    1
    33    15    16    1
    34    15    17    1
    35    15    23    1
    36    17    22   ar
    37    17    18   ar
    38    18    19   ar
    39    18    43    1
    40    19    20   ar
    41    19    44    1
    42    20    21   ar
    43    20    45    1
    44    21    22   ar
    45    21    46    1
    46    22    47    1
    47    23    24    1
    48    23    25    1
    49    25    48    1
    50    25    49    1
    51    26    27    2
    52    26    28    1
@<TRIPOS>SUBSTRUCTURE
     1 ZINC000863246516        1 TEMP              0 ****  ****    0 ROOT


##########                                Name:    ZINC000548281822
##########                DOCK_Rotatable_Bonds:                   6
##########                         Heavy_Atoms:                  24
##########                    Molecular_Weight:             332.406
##########                DOCK_Rotatable_Bonds:                   6
##########                       Formal_Charge:        -5.58794e-08
##########                     HBond_Acceptors:                   8
##########                        HBond_Donors:                   2
##########                         Heavy_Atoms:                  24
##########                          Grid_Score:          -33.107491
##########                     Grid_vdw_energy:          -32.129677
##########                      Grid_es_energy:           -0.977816
##########           Internal_energy_repulsive:            6.625459

@<TRIPOS>MOLECULE
ZINC000548281822
 48 50 1 0 0
SMALL
USER_CHARGES


@<TRIPOS>ATOM
      1 C1         -1.7173    2.7525   50.8183 C.3     1  ZINC000548281822   -0.1700
      2 C2         -2.9971    2.7125   49.9807 C.3     1  ZINC000548281822    0.2600
      3 H3         -3.0888    3.6385   49.4130 H       1  ZINC000548281822    0.1400
      4 N4         -2.9408    1.5769   49.0570 N.am    1  ZINC000548281822   -0.7400
      5 C5         -2.3826    1.7256   47.8394 C.2     1  ZINC000548281822    0.7100
      6 O6         -1.9270    2.8028   47.5068 O.2     1  ZINC000548281822   -0.5700
      7 N7         -2.3294    0.6804   46.9901 N.am    1  ZINC000548281822   -0.7400
      8 C8         -1.7210    0.8417   45.6672 C.3     1  ZINC000548281822    0.1600
      9 H9         -1.9544    1.8325   45.2775 H       1  ZINC000548281822    0.1000
     10 C10        -0.2021    0.6813   45.7799 C.3     1  ZINC000548281822   -0.1400
     11 C11         0.4541    1.0790   44.4532 C.3     1  ZINC000548281822    0.1100
     12 N12        -0.2213    0.3727   43.3621 N.pl3   1  ZINC000548281822   -0.4600
     13 C13         0.2258    0.1803   42.0889 C.2     1  ZINC000548281822   -0.0500
     14 C14        -0.7287   -0.5219   41.4452 C.2     1  ZINC000548281822   -0.0300
     15 N15        -1.7318   -0.7499   42.3086 N.2     1  ZINC000548281822   -0.4900
     16 C16        -1.4364   -0.2174   43.4581 C.2     1  ZINC000548281822    0.2100
     17 C17        -2.2740   -0.2265   44.7153 C.3     1  ZINC000548281822   -0.0500
     18 C18        -4.1887    2.5613   50.8908 C.2     1  ZINC000548281822    0.1700
     19 N19        -5.4121    2.2553   50.5313 N.2     1  ZINC000548281822   -0.4600
     20 C20        -6.1288    2.2331   51.6692 C.2     1  ZINC000548281822    0.1900
     21 C21        -7.5998    1.9292   51.7908 C.3     1  ZINC000548281822    0.0200
     22 C22        -8.3535    2.5838   50.6313 C.3     1  ZINC000548281822   -0.1400
     23 C23        -7.8131    0.4147   51.7473 C.3     1  ZINC000548281822   -0.1400
     24 C24        -8.1265    2.4804   53.1173 C.3     1  ZINC000548281822   -0.1400
     25 N25        -5.3199    2.5215   52.6444 N.2     1  ZINC000548281822   -0.3700
     26 O26        -4.1992    2.7079   52.2191 O.3     1  ZINC000548281822    0.0800
     27 H27        -1.6257    1.8265   51.3861 H       1  ZINC000548281822    0.0700
     28 H28        -0.8556    2.8619   50.1601 H       1  ZINC000548281822    0.0900
     29 H29        -1.7592    3.5975   51.5056 H       1  ZINC000548281822    0.0800
     30 H30        -3.3054    0.7178   49.3217 H       1  ZINC000548281822    0.4000
     31 H31        -2.6940   -0.1786   47.2549 H       1  ZINC000548281822    0.4000
     32 H32         0.1728    1.3228   46.5772 H       1  ZINC000548281822    0.1000
     33 H33         0.0377   -0.3576   46.0066 H       1  ZINC000548281822    0.0800
     34 H34         0.3587    2.1548   44.3064 H       1  ZINC000548281822    0.0900
     35 H35         1.5085    0.8026   44.4698 H       1  ZINC000548281822    0.1000
     36 H36         1.1625    0.5242   41.6756 H       1  ZINC000548281822    0.1800
     37 H37        -0.6931   -0.8441   40.4150 H       1  ZINC000548281822    0.1700
     38 H38        -2.2154   -1.2065   45.1890 H       1  ZINC000548281822    0.0900
     39 H39        -3.3107    0.0016   44.4681 H       1  ZINC000548281822    0.1000
     40 H40        -7.9782    2.1911   49.6862 H       1  ZINC000548281822    0.0600
     41 H41        -9.4174    2.3641   50.7193 H       1  ZINC000548281822    0.0700
     42 H42        -8.2015    3.6629   50.6623 H       1  ZINC000548281822    0.0700
     43 H43        -7.2763   -0.0516   52.5733 H       1  ZINC000548281822    0.0600
     44 H44        -8.8770    0.1950   51.8352 H       1  ZINC000548281822    0.0700
     45 H45        -7.4379    0.0220   50.8023 H       1  ZINC000548281822    0.0600
     46 H46        -7.9746    3.5594   53.1484 H       1  ZINC000548281822    0.0700
     47 H47        -9.1905    2.2607   53.2053 H       1  ZINC000548281822    0.0700
     48 H48        -7.5897    2.0141   53.9434 H       1  ZINC000548281822    0.0600
@<TRIPOS>BOND
     1     1     2    1
     2     1    27    1
     3     1    28    1
     4     1    29    1
     5     2     3    1
     6     2     4    1
     7     2    18    1
     8     4     5   am
     9     4    30    1
    10     5     6    2
    11     5     7   am
    12     7     8    1
    13     7    31    1
    14     8     9    1
    15     8    17    1
    16     8    10    1
    17    10    11    1
    18    10    32    1
    19    10    33    1
    20    11    12    1
    21    11    34    1
    22    11    35    1
    23    12    16    1
    24    12    13    1
    25    13    14    2
    26    13    36    1
    27    14    15    1
    28    14    37    1
    29    15    16    2
    30    16    17    1
    31    17    38    1
    32    17    39    1
    33    18    26    1
    34    18    19    2
    35    19    20    1
    36    20    21    1
    37    20    25    2
    38    21    22    1
    39    21    23    1
    40    21    24    1
    41    22    40    1
    42    22    41    1
    43    22    42    1
    44    23    43    1
    45    23    44    1
    46    23    45    1
    47    24    46    1
    48    24    47    1
    49    24    48    1
    50    25    26    1
@<TRIPOS>SUBSTRUCTURE
     1 ZINC000548281822        1 TEMP              0 ****  ****    0 ROOT


##########                                Name:    ZINC000822206030
##########                DOCK_Rotatable_Bonds:                   7
##########                         Heavy_Atoms:                  29
##########                    Molecular_Weight:             391.448
##########                DOCK_Rotatable_Bonds:                   7
##########                       Formal_Charge:         -0.00999995
##########                     HBond_Acceptors:                   7
##########                        HBond_Donors:                   1
##########                         Heavy_Atoms:                  29
##########                          Grid_Score:          -33.097927
##########                     Grid_vdw_energy:          -33.056705
##########                      Grid_es_energy:           -0.041220
##########           Internal_energy_repulsive:           20.410604

@<TRIPOS>MOLECULE
ZINC000822206030
 51 55 1 0 0
SMALL
USER_CHARGES


@<TRIPOS>ATOM
      1 C1        -12.8970   -4.7104   56.2966 C.3     1  ZINC000822206030   -0.1300
      2 C2        -13.6580   -3.9510   57.3527 C.ar    1  ZINC000822206030   -0.0400
      3 C3        -14.6584   -4.5781   58.0688 C.ar    1  ZINC000822206030   -0.1500
      4 C4        -15.3583   -3.8805   59.0391 C.ar    1  ZINC000822206030    0.1100
      5 F5        -16.3369   -4.4956   59.7383 F       1  ZINC000822206030   -0.1400
      6 C6        -15.0562   -2.5534   59.2938 C.ar    1  ZINC000822206030   -0.1500
      7 C7        -14.0562   -1.9225   58.5796 C.ar    1  ZINC000822206030   -0.0800
      8 C8        -13.3499   -2.6216   57.6102 C.ar    1  ZINC000822206030    0.1100
      9 N9        -12.3355   -1.9840   56.8854 N.am    1  ZINC000822206030   -0.5600
     10 C10       -10.9302   -2.2495   57.2032 C.3     1  ZINC000822206030    0.1500
     11 C11       -10.6202   -1.7286   58.5829 C.ar    1  ZINC000822206030   -0.0900
     12 C12       -10.1144   -2.5842   59.5449 C.ar    1  ZINC000822206030   -0.1000
     13 C13        -9.8283   -2.1122   60.8100 C.ar    1  ZINC000822206030   -0.0800
     14 C14       -10.0498   -0.7717   61.1172 C.ar    1  ZINC000822206030   -0.0100
     15 C15        -9.7435   -0.2583   62.4761 C.2     1  ZINC000822206030    0.2200
     16 N16        -9.8650    0.9860   62.8936 N.2     1  ZINC000822206030   -0.2900
     17 N17        -9.5015    1.0247   64.1293 N.pl3   1  ZINC000822206030   -0.2300
     18 N18        -9.1536   -0.1554   64.5080 N.2     1  ZINC000822206030   -0.0500
     19 N19        -9.2951   -0.9712   63.5190 N.2     1  ZINC000822206030   -0.2700
     20 C20       -10.5594    0.0856   60.1447 C.ar    1  ZINC000822206030   -0.0800
     21 C21       -10.8371   -0.3955   58.8811 C.ar    1  ZINC000822206030   -0.0900
     22 C22       -12.6519   -1.1259   55.8954 C.2     1  ZINC000822206030    0.5500
     23 O23       -13.8153   -0.9071   55.6313 O.2     1  ZINC000822206030   -0.5000
     24 C24       -11.5603   -0.4382   55.1167 C.3     1  ZINC000822206030   -0.1900
     25 H25       -10.7130   -0.0866   55.7053 H       1  ZINC000822206030    0.1200
     26 C26       -11.9766    0.4006   53.9067 C.3     1  ZINC000822206030   -0.1400
     27 C27       -11.2758   -0.9446   53.7013 C.3     1  ZINC000822206030   -0.0900
     28 H28       -10.2412   -0.9260   53.3585 H       1  ZINC000822206030    0.1100
     29 C29       -12.1213   -2.1102   53.1840 C.3     1  ZINC000822206030   -0.1100
     30 C30       -11.8551   -2.5982   51.7587 C.3     1  ZINC000822206030   -0.2000
     31 C31       -11.4149   -3.4474   52.9528 C.3     1  ZINC000822206030   -0.1200
     32 H32       -12.0283   -5.1892   56.7484 H       1  ZINC000822206030    0.0900
     33 H33       -13.5439   -5.4706   55.8586 H       1  ZINC000822206030    0.0700
     34 H34       -12.5684   -4.0209   55.5190 H       1  ZINC000822206030    0.0700
     35 H35       -14.8953   -5.6132   57.8720 H       1  ZINC000822206030    0.1400
     36 H36       -15.6029   -2.0112   60.0511 H       1  ZINC000822206030    0.1400
     37 H37       -13.8211   -0.8873   58.7783 H       1  ZINC000822206030    0.1400
     38 H38       -10.7471   -3.3236   57.1707 H       1  ZINC000822206030    0.1000
     39 H39       -10.2922   -1.7499   56.4743 H       1  ZINC000822206030    0.0900
     40 H40        -9.9433   -3.6234   59.3058 H       1  ZINC000822206030    0.1300
     41 H41        -9.4337   -2.7811   61.5605 H       1  ZINC000822206030    0.1400
     42 H42        -9.4913    1.8186   64.6867 H       1  ZINC000822206030    0.4800
     43 H43       -10.7333    1.1257   60.3778 H       1  ZINC000822206030    0.1300
     44 H44       -11.2322    0.2682   58.1263 H       1  ZINC000822206030    0.1400
     45 H45       -13.0401    0.4550   53.6740 H       1  ZINC000822206030    0.1000
     46 H46       -11.4028    1.3038   53.6991 H       1  ZINC000822206030    0.1000
     47 H47       -13.1502   -2.1399   53.5427 H       1  ZINC000822206030    0.1000
     48 H48       -12.7090   -2.9490   51.1791 H       1  ZINC000822206030    0.0900
     49 H49       -11.0776   -2.0890   51.1893 H       1  ZINC000822206030    0.0900
     50 H50       -10.3477   -3.4969   53.1689 H       1  ZINC000822206030    0.0800
     51 H51       -11.9791   -4.3569   53.1587 H       1  ZINC000822206030    0.0900
@<TRIPOS>BOND
     1     1     2    1
     2     1    32    1
     3     1    33    1
     4     1    34    1
     5     2     8   ar
     6     2     3   ar
     7     3     4   ar
     8     3    35    1
     9     4     5    1
    10     4     6   ar
    11     6     7   ar
    12     6    36    1
    13     7     8   ar
    14     7    37    1
    15     8     9    1
    16     9    10    1
    17     9    22   am
    18    10    11    1
    19    10    38    1
    20    10    39    1
    21    11    21   ar
    22    11    12   ar
    23    12    13   ar
    24    12    40    1
    25    13    14   ar
    26    13    41    1
    27    14    15    1
    28    14    20   ar
    29    15    19    1
    30    15    16    2
    31    16    17    1
    32    17    18    1
    33    17    42    1
    34    18    19    2
    35    20    21   ar
    36    20    43    1
    37    21    44    1
    38    22    23    2
    39    22    24    1
    40    24    25    1
    41    24    27    1
    42    24    26    1
    43    26    27    1
    44    26    45    1
    45    26    46    1
    46    27    28    1
    47    27    29    1
    48    29    31    1
    49    29    30    1
    50    29    47    1
    51    30    31    1
    52    30    48    1
    53    30    49    1
    54    31    50    1
    55    31    51    1
@<TRIPOS>SUBSTRUCTURE
     1 ZINC000822206030        1 TEMP              0 ****  ****    0 ROOT


##########                                Name:    ZINC000948289723
##########                DOCK_Rotatable_Bonds:                   6
##########                         Heavy_Atoms:                  24
##########                    Molecular_Weight:             331.415
##########                DOCK_Rotatable_Bonds:                   6
##########                       Formal_Charge:           0.0599999
##########                     HBond_Acceptors:                   6
##########                        HBond_Donors:                   1
##########                         Heavy_Atoms:                  24
##########                          Grid_Score:          -33.088234
##########                     Grid_vdw_energy:          -31.440470
##########                      Grid_es_energy:           -1.647766
##########           Internal_energy_repulsive:            7.796903

@<TRIPOS>MOLECULE
ZINC000948289723
 49 52 1 0 0
SMALL
USER_CHARGES


@<TRIPOS>ATOM
      1 C1        -14.0326   -5.1620   56.9262 C.3     1  ZINC000948289723   -0.1400
      2 C2        -12.9465   -4.0990   56.7486 C.3     1  ZINC000948289723   -0.1100
      3 C3        -12.8304   -3.1321   57.9387 C.3     1  ZINC000948289723   -0.1100
      4 C4        -11.3057   -3.2144   57.7556 C.3     1  ZINC000948289723   -0.1400
      5 C5        -10.5441   -3.2739   59.0547 C.2     1  ZINC000948289723    0.5400
      6 O6        -10.0148   -4.3089   59.4004 O.2     1  ZINC000948289723   -0.5300
      7 N7        -10.4513   -2.1770   59.8322 N.am    1  ZINC000948289723   -0.6200
      8 C8        -11.0418   -0.8638   59.5353 C.3     1  ZINC000948289723    0.1100
      9 C9        -10.7001    0.0697   60.7156 C.3     1  ZINC000948289723   -0.1100
     10 H10        -9.8135    0.6636   60.4934 H       1  ZINC000948289723    0.1000
     11 C11       -11.8864    0.9762   61.0501 C.3     1  ZINC000948289723   -0.1400
     12 C12       -10.4194   -0.9234   61.8742 C.3     1  ZINC000948289723    0.1400
     13 H13       -11.3476   -1.2465   62.3453 H       1  ZINC000948289723    0.1200
     14 N14        -9.5098   -0.3357   62.8609 N.am    1  ZINC000948289723   -0.7100
     15 C15        -9.9946    0.1405   64.0247 C.2     1  ZINC000948289723    0.6100
     16 O16       -11.1866    0.0809   64.2565 O.2     1  ZINC000948289723   -0.5000
     17 C17        -9.0790    0.7338   65.0175 C.2     1  ZINC000948289723   -0.0900
     18 C18        -7.7428    0.9820   64.8588 C.2     1  ZINC000948289723   -0.1400
     19 C19        -7.3548    1.5464   66.0943 C.2     1  ZINC000948289723    0.0500
     20 C20        -5.9741    2.0134   66.4772 C.3     1  ZINC000948289723   -0.0900
     21 C21        -4.7862    1.1839   65.9854 C.3     1  ZINC000948289723   -0.1600
     22 C22        -5.0753    2.5507   65.3616 C.3     1  ZINC000948289723   -0.1600
     23 N23        -8.4226    1.5848   66.8370 N.2     1  ZINC000948289723   -0.3300
     24 O24        -9.3905    1.1460   66.2608 O.3     1  ZINC000948289723    0.1200
     25 C25        -9.7459   -2.0970   61.1243 C.3     1  ZINC000948289723    0.0900
     26 C26       -11.5363   -4.5923   57.1130 C.3     1  ZINC000948289723   -0.1200
     27 H27       -14.0594   -5.4836   57.9674 H       1  ZINC000948289723    0.0600
     28 H28       -15.0001   -4.7426   56.6505 H       1  ZINC000948289723    0.0600
     29 H29       -13.8120   -6.0172   56.2874 H       1  ZINC000948289723    0.0600
     30 H30       -12.9979   -3.5990   55.7813 H       1  ZINC000948289723    0.0900
     31 H31       -13.2415   -2.1425   57.7389 H       1  ZINC000948289723    0.0700
     32 H32       -13.1806   -3.5547   58.8804 H       1  ZINC000948289723    0.1000
     33 H33       -10.9081   -2.4703   57.0655 H       1  ZINC000948289723    0.1100
     34 H34       -10.6174   -0.4663   58.6133 H       1  ZINC000948289723    0.0800
     35 H35       -12.1235   -0.9573   59.4377 H       1  ZINC000948289723    0.0800
     36 H36       -12.7531    0.3635   61.2979 H       1  ZINC000948289723    0.0600
     37 H37       -11.6325    1.6078   61.9014 H       1  ZINC000948289723    0.0600
     38 H38       -12.1188    1.6030   60.1891 H       1  ZINC000948289723    0.0700
     39 H39        -8.5586   -0.2893   62.6764 H       1  ZINC000948289723    0.4100
     40 H40        -7.1282    0.7905   63.9917 H       1  ZINC000948289723    0.1800
     41 H41        -5.8908    2.4795   67.4590 H       1  ZINC000948289723    0.1300
     42 H42        -3.9211    1.1041   66.6437 H       1  ZINC000948289723    0.1100
     43 H43        -5.0033    0.3005   65.3850 H       1  ZINC000948289723    0.1000
     44 H44        -5.4828    2.5665   64.3507 H       1  ZINC000948289723    0.1000
     45 H45        -4.4006    3.3700   65.6095 H       1  ZINC000948289723    0.1100
     46 H46        -9.8668   -3.0242   61.6844 H       1  ZINC000948289723    0.0900
     47 H47        -8.6891   -1.8863   60.9611 H       1  ZINC000948289723    0.0800
     48 H48       -11.5326   -5.4142   57.8290 H       1  ZINC000948289723    0.0900
     49 H49       -10.9025   -4.7816   56.2466 H       1  ZINC000948289723    0.0800
@<TRIPOS>BOND
     1     1     2    1
     2     1    27    1
     3     1    28    1
     4     1    29    1
     5     2    26    1
     6     2     3    1
     7     2    30    1
     8     3     4    1
     9     3    31    1
    10     3    32    1
    11     4     5    1
    12     4    26    1
    13     4    33    1
    14     5     6    2
    15     5     7   am
    16     7    25    1
    17     7     8    1
    18     8     9    1
    19     8    34    1
    20     8    35    1
    21     9    10    1
    22     9    11    1
    23     9    12    1
    24    11    36    1
    25    11    37    1
    26    11    38    1
    27    12    13    1
    28    12    14    1
    29    12    25    1
    30    14    15   am
    31    14    39    1
    32    15    16    2
    33    15    17    1
    34    17    24    1
    35    17    18    2
    36    18    19    1
    37    18    40    1
    38    19    20    1
    39    19    23    2
    40    20    22    1
    41    20    21    1
    42    20    41    1
    43    21    22    1
    44    21    42    1
    45    21    43    1
    46    22    44    1
    47    22    45    1
    48    23    24    1
    49    25    46    1
    50    25    47    1
    51    26    48    1
    52    26    49    1
@<TRIPOS>SUBSTRUCTURE
     1 ZINC000948289723        1 TEMP              0 ****  ****    0 ROOT


##########                                Name:    ZINC000182044395
##########                DOCK_Rotatable_Bonds:                   8
##########                         Heavy_Atoms:                  28
##########                    Molecular_Weight:             398.889
##########                DOCK_Rotatable_Bonds:                   8
##########                       Formal_Charge:          -0.0399999
##########                     HBond_Acceptors:                   6
##########                        HBond_Donors:                   2
##########                         Heavy_Atoms:                  28
##########                          Grid_Score:          -33.088169
##########                     Grid_vdw_energy:          -32.480690
##########                      Grid_es_energy:           -0.607478
##########           Internal_energy_repulsive:           21.364836

@<TRIPOS>MOLECULE
ZINC000182044395
 51 53 1 0 0
SMALL
USER_CHARGES


@<TRIPOS>ATOM
      1 C1         -8.0779    2.3088   55.8262 C.3     1  ZINC000182044395   -0.1800
      2 C2         -8.9656    2.5610   54.6058 C.3     1  ZINC000182044395    0.0800
      3 N3         -8.8050    1.4626   53.6497 N.pl3   1  ZINC000182044395   -0.4800
      4 C4         -9.6883    0.4562   53.6752 C.2     1  ZINC000182044395    0.2500
      5 C5         -9.6079   -0.6149   52.8095 C.2     1  ZINC000182044395   -0.3500
      6 C6        -10.5987   -1.7009   52.8694 C.2     1  ZINC000182044395    0.5900
      7 O7        -10.2657   -2.8428   52.6146 O.2     1  ZINC000182044395   -0.5600
      8 N8        -11.8754   -1.4304   53.2064 N.am    1  ZINC000182044395   -0.7200
      9 C9        -12.8620   -2.5118   53.2659 C.3     1  ZINC000182044395    0.1100
     10 H10       -12.6482   -3.2421   52.4856 H       1  ZINC000182044395    0.0900
     11 C11       -12.7909   -3.1922   54.6345 C.3     1  ZINC000182044395   -0.1600
     12 C12       -14.2636   -1.9355   53.0550 C.3     1  ZINC000182044395    0.1100
     13 H13       -14.7700   -1.8510   54.0165 H       1  ZINC000182044395    0.1100
     14 O14       -14.1616   -0.6426   52.4551 O.3     1  ZINC000182044395   -0.5500
     15 C15       -15.0632   -2.8621   52.1370 C.3     1  ZINC000182044395   -0.1100
     16 C16       -15.0972   -2.2839   50.7458 C.ar    1  ZINC000182044395   -0.0800
     17 C17       -13.9167   -2.0483   50.0662 C.ar    1  ZINC000182044395   -0.1000
     18 C18       -13.9478   -1.5175   48.7902 C.ar    1  ZINC000182044395   -0.1200
     19 C19       -15.1594   -1.2232   48.1935 C.ar    1  ZINC000182044395   -0.1200
     20 C20       -16.3398   -1.4543   48.8748 C.ar    1  ZINC000182044395   -0.1200
     21 C21       -16.3088   -1.9888   50.1494 C.ar    1  ZINC000182044395   -0.1200
     22 C22        -8.5112   -0.6563   51.8294 C.2     1  ZINC000182044395    0.4400
     23 O23        -8.3935   -1.5829   51.0468 O.2     1  ZINC000182044395   -0.4900
     24 C24        -7.5635    0.4739   51.8306 C.ar    1  ZINC000182044395   -0.1800
     25 C25        -6.4969    0.5219   50.9335 C.ar    1  ZINC000182044395   -0.0200
     26 C26        -5.6267    1.5906   50.9671 C.ar    1  ZINC000182044395   -0.0700
     27 Cl27       -4.2961    1.6573   49.8539 Cl      1  ZINC000182044395   -0.0500
     28 C28        -5.8103    2.6141   51.8872 C.ar    1  ZINC000182044395   -0.0500
     29 C29        -6.8603    2.5790   52.7784 C.ar    1  ZINC000182044395   -0.1600
     30 C30        -7.7511    1.5089   52.7626 C.ar    1  ZINC000182044395    0.1900
     31 H31        -7.0359    2.2503   55.5116 H       1  ZINC000182044395    0.0700
     32 H32        -8.1973    3.1260   56.5375 H       1  ZINC000182044395    0.0800
     33 H33        -8.3680    1.3704   56.2987 H       1  ZINC000182044395    0.0700
     34 H34        -8.6755    3.4994   54.1332 H       1  ZINC000182044395    0.1000
     35 H35       -10.0076    2.6195   54.9203 H       1  ZINC000182044395    0.1100
     36 H36       -10.4907    0.4841   54.3976 H       1  ZINC000182044395    0.1800
     37 H37       -12.1409   -0.5199   53.4095 H       1  ZINC000182044395    0.4100
     38 H38       -11.7925   -3.6027   54.7847 H       1  ZINC000182044395    0.0600
     39 H39       -13.0048   -2.4619   55.4149 H       1  ZINC000182044395    0.0600
     40 H40       -13.5251   -3.9967   54.6788 H       1  ZINC000182044395    0.0600
     41 H41       -14.9983   -0.1593   52.4175 H       1  ZINC000182044395    0.3700
     42 H42       -16.0809   -2.9587   52.5154 H       1  ZINC000182044395    0.0800
     43 H43       -14.5906   -3.8441   52.1110 H       1  ZINC000182044395    0.0800
     44 H44       -12.9701   -2.2786   50.5323 H       1  ZINC000182044395    0.1200
     45 H45       -13.0255   -1.3331   48.2595 H       1  ZINC000182044395    0.1200
     46 H46       -15.1838   -0.8085   47.1965 H       1  ZINC000182044395    0.1200
     47 H47       -17.2863   -1.2202   48.4104 H       1  ZINC000182044395    0.1200
     48 H48       -17.2311   -2.1726   50.6804 H       1  ZINC000182044395    0.1200
     49 H49        -6.3535   -0.2733   50.2169 H       1  ZINC000182044395    0.1500
     50 H50        -5.1229    3.4469   51.9042 H       1  ZINC000182044395    0.1500
     51 H51        -6.9925    3.3813   53.4891 H       1  ZINC000182044395    0.1500
@<TRIPOS>BOND
     1     1     2    1
     2     1    31    1
     3     1    32    1
     4     1    33    1
     5     2     3    1
     6     2    34    1
     7     2    35    1
     8     3    30    1
     9     3     4    1
    10     4     5    2
    11     4    36    1
    12     5     6    1
    13     5    22    1
    14     6     7    2
    15     6     8   am
    16     8     9    1
    17     8    37    1
    18     9    10    1
    19     9    11    1
    20     9    12    1
    21    11    38    1
    22    11    39    1
    23    11    40    1
    24    12    13    1
    25    12    14    1
    26    12    15    1
    27    14    41    1
    28    15    16    1
    29    15    42    1
    30    15    43    1
    31    16    21   ar
    32    16    17   ar
    33    17    18   ar
    34    17    44    1
    35    18    19   ar
    36    18    45    1
    37    19    20   ar
    38    19    46    1
    39    20    21   ar
    40    20    47    1
    41    21    48    1
    42    22    23    2
    43    22    24    1
    44    24    30   ar
    45    24    25   ar
    46    25    26   ar
    47    25    49    1
    48    26    27    1
    49    26    28   ar
    50    28    29   ar
    51    28    50    1
    52    29    30   ar
    53    29    51    1
@<TRIPOS>SUBSTRUCTURE
     1 ZINC000182044395        1 TEMP              0 ****  ****    0 ROOT


##########                                Name:    ZINC000089894387
##########                DOCK_Rotatable_Bonds:                   8
##########                         Heavy_Atoms:                  22
##########                    Molecular_Weight:             326.823
##########                DOCK_Rotatable_Bonds:                   8
##########                       Formal_Charge:          -0.0300003
##########                     HBond_Acceptors:                   6
##########                        HBond_Donors:                   2
##########                         Heavy_Atoms:                  22
##########                          Grid_Score:          -33.070496
##########                     Grid_vdw_energy:          -32.430580
##########                      Grid_es_energy:           -0.639915
##########           Internal_energy_repulsive:           14.177273

@<TRIPOS>MOLECULE
ZINC000089894387
 45 46 1 0 0
SMALL
USER_CHARGES


@<TRIPOS>ATOM
      1 C1        -11.8083   -2.8933   54.2344 C.3     1  ZINC000089894387   -0.1700
      2 C2        -11.9108   -3.7189   55.5186 C.3     1  ZINC000089894387    0.1700
      3 H3        -11.2880   -4.6089   55.4290 H       1  ZINC000089894387    0.0900
      4 N4        -11.4527   -2.9145   56.6540 N.am    1  ZINC000089894387   -0.7400
      5 C5        -10.8075   -3.5034   57.6803 C.2     1  ZINC000089894387    0.7100
      6 O6        -10.6069   -4.7025   57.6646 O.2     1  ZINC000089894387   -0.5900
      7 N7        -10.3847   -2.7632   58.7243 N.am    1  ZINC000089894387   -0.7500
      8 C8         -9.6818   -3.4030   59.8390 C.3     1  ZINC000089894387    0.1400
      9 C9         -9.3511   -2.3542   60.9027 C.3     1  ZINC000089894387    0.0500
     10 O10       -10.5632   -1.8026   61.4209 O.3     1  ZINC000089894387   -0.3100
     11 C11       -10.4544   -0.6871   62.1894 C.ar    1  ZINC000089894387    0.1400
     12 C12       -11.2391    0.4238   61.9165 C.ar    1  ZINC000089894387   -0.2100
     13 C13       -11.1271    1.5571   62.6989 C.ar    1  ZINC000089894387   -0.0700
     14 C14       -10.2338    1.5852   63.7534 C.ar    1  ZINC000089894387   -0.1500
     15 C15        -9.4491    0.4785   64.0280 C.ar    1  ZINC000089894387    0.0000
     16 Cl16       -8.3283    0.5170   65.3530 Cl      1  ZINC000089894387   -0.0600
     17 C17        -9.5623   -0.6597   63.2516 C.ar    1  ZINC000089894387   -0.1500
     18 C18       -13.3659   -4.1351   55.7425 C.3     1  ZINC000089894387   -0.1000
     19 C19       -13.4109   -5.3883   56.6220 C.3     1  ZINC000089894387   -0.1600
     20 C20       -14.8709   -5.7512   56.9056 C.3     1  ZINC000089894387    0.0600
     21 O21       -15.5223   -4.6447   57.5327 O.3     1  ZINC000089894387   -0.3800
     22 C22       -15.5528   -3.4580   56.7370 C.3     1  ZINC000089894387    0.0600
     23 C23       -14.1201   -3.0030   56.4468 C.3     1  ZINC000089894387   -0.1500
     24 H24       -12.4311   -2.0033   54.3240 H       1  ZINC000089894387    0.0600
     25 H25       -10.7716   -2.5968   54.0749 H       1  ZINC000089894387    0.0600
     26 H26       -12.1491   -3.4918   53.3896 H       1  ZINC000089894387    0.0700
     27 H27       -11.6138   -1.9580   56.6672 H       1  ZINC000089894387    0.3900
     28 H28       -10.5458   -1.8067   58.7374 H       1  ZINC000089894387    0.4000
     29 H29       -10.3171   -4.1742   60.2744 H       1  ZINC000089894387    0.0800
     30 H30        -8.7590   -3.8549   59.4752 H       1  ZINC000089894387    0.0900
     31 H31        -8.7896   -2.8216   61.7118 H       1  ZINC000089894387    0.0900
     32 H32        -8.7523   -1.5602   60.4564 H       1  ZINC000089894387    0.0700
     33 H33       -11.9371    0.4029   61.0926 H       1  ZINC000089894387    0.1300
     34 H34       -11.7378    2.4220   62.4861 H       1  ZINC000089894387    0.1400
     35 H35       -10.1478    2.4720   64.3637 H       1  ZINC000089894387    0.1400
     36 H36        -8.9504   -1.5233   63.4661 H       1  ZINC000089894387    0.1400
     37 H37       -13.8370   -4.3449   54.7822 H       1  ZINC000089894387    0.0800
     38 H38       -12.9241   -6.2146   56.1040 H       1  ZINC000089894387    0.0700
     39 H39       -12.8952   -5.1922   57.5622 H       1  ZINC000089894387    0.0800
     40 H40       -15.3755   -5.9865   55.9685 H       1  ZINC000089894387    0.0500
     41 H41       -14.9085   -6.6173   57.5663 H       1  ZINC000089894387    0.0900
     42 H42       -16.0663   -3.6635   55.7977 H       1  ZINC000089894387    0.0500
     43 H43       -16.0816   -2.6723   57.2763 H       1  ZINC000089894387    0.1000
     44 H44       -13.6187   -2.7587   57.3833 H       1  ZINC000089894387    0.0800
     45 H45       -14.1406   -2.1234   55.8033 H       1  ZINC000089894387    0.0800
@<TRIPOS>BOND
     1     1     2    1
     2     1    24    1
     3     1    25    1
     4     1    26    1
     5     2     3    1
     6     2     4    1
     7     2    18    1
     8     4     5   am
     9     4    27    1
    10     5     6    2
    11     5     7   am
    12     7     8    1
    13     7    28    1
    14     8     9    1
    15     8    29    1
    16     8    30    1
    17     9    10    1
    18     9    31    1
    19     9    32    1
    20    10    11    1
    21    11    17   ar
    22    11    12   ar
    23    12    13   ar
    24    12    33    1
    25    13    14   ar
    26    13    34    1
    27    14    15   ar
    28    14    35    1
    29    15    16    1
    30    15    17   ar
    31    17    36    1
    32    18    23    1
    33    18    19    1
    34    18    37    1
    35    19    20    1
    36    19    38    1
    37    19    39    1
    38    20    21    1
    39    20    40    1
    40    20    41    1
    41    21    22    1
    42    22    23    1
    43    22    42    1
    44    22    43    1
    45    23    44    1
    46    23    45    1
@<TRIPOS>SUBSTRUCTURE
     1 ZINC000089894387        1 TEMP              0 ****  ****    0 ROOT


##########                                Name:    ZINC000123469372
##########                DOCK_Rotatable_Bonds:                   7
##########                         Heavy_Atoms:                  25
##########                    Molecular_Weight:             341.382
##########                DOCK_Rotatable_Bonds:                   7
##########                       Formal_Charge:          -0.0300001
##########                     HBond_Acceptors:                   5
##########                        HBond_Donors:                   2
##########                         Heavy_Atoms:                  25
##########                          Grid_Score:          -33.062008
##########                     Grid_vdw_energy:          -32.809048
##########                      Grid_es_energy:           -0.252959
##########           Internal_energy_repulsive:            9.418294

@<TRIPOS>MOLECULE
ZINC000123469372
 45 47 1 0 0
SMALL
USER_CHARGES


@<TRIPOS>ATOM
      1 C1        -14.2766   -5.4210   56.8568 C.3     1  ZINC000123469372   -0.1700
      2 C2        -13.0624   -4.5451   56.5414 C.3     1  ZINC000123469372    0.1500
      3 H3        -12.2357   -5.1748   56.2126 H       1  ZINC000123469372    0.0900
      4 C4        -13.4221   -3.5551   55.4317 C.3     1  ZINC000123469372   -0.1600
      5 C5        -13.1570   -4.1982   54.0690 C.3     1  ZINC000123469372    0.1500
      6 H6        -13.5363   -5.2201   54.0695 H       1  ZINC000123469372    0.1100
      7 O7        -11.7509   -4.2122   53.8142 O.3     1  ZINC000123469372   -0.5500
      8 C8        -13.8543   -3.4041   52.9946 C.ar    1  ZINC000123469372   -0.1200
      9 C9        -15.2250   -3.5002   52.8437 C.ar    1  ZINC000123469372   -0.1100
     10 C10       -15.8646   -2.7718   51.8581 C.ar    1  ZINC000123469372   -0.1200
     11 C11       -15.1334   -1.9470   51.0238 C.ar    1  ZINC000123469372   -0.1200
     12 C12       -13.7629   -1.8502   51.1754 C.ar    1  ZINC000123469372   -0.1200
     13 C13       -13.1238   -2.5753   52.1637 C.ar    1  ZINC000123469372   -0.1100
     14 N14       -12.6665   -3.8080   57.7440 N.am    1  ZINC000123469372   -0.7100
     15 C15       -11.4870   -4.0736   58.3394 C.2     1  ZINC000123469372    0.5700
     16 O16       -10.7512   -4.9270   57.8788 O.2     1  ZINC000123469372   -0.5400
     17 C17       -11.0909   -3.3366   59.5388 C.2     1  ZINC000123469372   -0.2200
     18 C18       -11.8857   -2.3525   60.0269 C.2     1  ZINC000123469372    0.0000
     19 C19       -11.4293   -1.6299   61.2244 C.ar    1  ZINC000123469372   -0.1200
     20 C20       -12.3031   -0.8513   61.9818 C.ar    1  ZINC000123469372   -0.0900
     21 C21       -11.8305   -0.1895   63.0990 C.ar    1  ZINC000123469372    0.0700
     22 F22       -12.6711    0.5668   63.8383 F       1  ZINC000123469372   -0.1400
     23 C23       -10.4970   -0.2986   63.4651 C.ar    1  ZINC000123469372   -0.1100
     24 C24        -9.6230   -1.0685   62.7196 C.ar    1  ZINC000123469372   -0.1200
     25 C25       -10.0785   -1.7381   61.5986 C.ar    1  ZINC000123469372    0.1300
     26 O26        -9.2459   -2.5002   60.8468 O.3     1  ZINC000123469372   -0.3000
     27 C27        -9.8009   -3.6717   60.2412 C.3     1  ZINC000123469372    0.1100
     28 H28       -14.5712   -5.9694   55.9620 H       1  ZINC000123469372    0.0700
     29 H29       -14.0203   -6.1263   57.6473 H       1  ZINC000123469372    0.0600
     30 H30       -15.1033   -4.7913   57.1856 H       1  ZINC000123469372    0.0600
     31 H31       -14.4763   -3.2896   55.5093 H       1  ZINC000123469372    0.0900
     32 H32       -12.8128   -2.6572   55.5344 H       1  ZINC000123469372    0.0800
     33 H33       -11.4879   -4.7999   53.0926 H       1  ZINC000123469372    0.3700
     34 H34       -15.7961   -4.1446   53.4954 H       1  ZINC000123469372    0.1200
     35 H35       -16.9354   -2.8474   51.7397 H       1  ZINC000123469372    0.1200
     36 H36       -15.6331   -1.3785   50.2534 H       1  ZINC000123469372    0.1200
     37 H37       -13.1916   -1.2059   50.5233 H       1  ZINC000123469372    0.1200
     38 H38       -12.0530   -2.4997   52.2821 H       1  ZINC000123469372    0.1200
     39 H39       -13.2533   -3.1289   58.1118 H       1  ZINC000123469372    0.4000
     40 H40       -12.8238   -2.1066   59.5516 H       1  ZINC000123469372    0.1500
     41 H41       -13.3415   -0.7656   61.6972 H       1  ZINC000123469372    0.1500
     42 H42       -10.1380    0.2228   64.3401 H       1  ZINC000123469372    0.1500
     43 H43        -8.5864   -1.1466   63.0123 H       1  ZINC000123469372    0.1500
     44 H44        -9.9861   -4.4217   61.0101 H       1  ZINC000123469372    0.0800
     45 H45        -9.0931   -4.0718   59.5151 H       1  ZINC000123469372    0.1100
@<TRIPOS>BOND
     1     1     2    1
     2     1    28    1
     3     1    29    1
     4     1    30    1
     5     2     3    1
     6     2     4    1
     7     2    14    1
     8     4     5    1
     9     4    31    1
    10     4    32    1
    11     5     6    1
    12     5     7    1
    13     5     8    1
    14     7    33    1
    15     8    13   ar
    16     8     9   ar
    17     9    10   ar
    18     9    34    1
    19    10    11   ar
    20    10    35    1
    21    11    12   ar
    22    11    36    1
    23    12    13   ar
    24    12    37    1
    25    13    38    1
    26    14    15   am
    27    14    39    1
    28    15    16    2
    29    15    17    1
    30    17    27    1
    31    17    18    2
    32    18    19    1
    33    18    40    1
    34    19    25   ar
    35    19    20   ar
    36    20    21   ar
    37    20    41    1
    38    21    22    1
    39    21    23   ar
    40    23    24   ar
    41    23    42    1
    42    24    25   ar
    43    24    43    1
    44    25    26    1
    45    26    27    1
    46    27    44    1
    47    27    45    1
@<TRIPOS>SUBSTRUCTURE
     1 ZINC000123469372        1 TEMP              0 ****  ****    0 ROOT


##########                                Name:    ZINC000499369364
##########                DOCK_Rotatable_Bonds:                   9
##########                         Heavy_Atoms:                  25
##########                    Molecular_Weight:             384.527
##########                DOCK_Rotatable_Bonds:                   9
##########                       Formal_Charge:        -5.88596e-07
##########                     HBond_Acceptors:                  10
##########                        HBond_Donors:                   1
##########                         Heavy_Atoms:                  25
##########                          Grid_Score:          -33.044724
##########                     Grid_vdw_energy:          -32.780182
##########                      Grid_es_energy:           -0.264541
##########           Internal_energy_repulsive:           19.125589

@<TRIPOS>MOLECULE
ZINC000499369364
 49 51 1 0 0
SMALL
USER_CHARGES


@<TRIPOS>ATOM
      1 C1         -9.2882    2.4020   55.5707 C.3     1  ZINC000499369364   -0.1500
      2 C2         -9.5061    1.0298   54.9299 C.3     1  ZINC000499369364   -0.1000
      3 C3        -10.0149    0.0481   55.9874 C.3     1  ZINC000499369364   -0.1500
      4 C4        -10.5380    1.1496   53.8067 C.3     1  ZINC000499369364    0.1500
      5 H5        -11.3585    1.7884   54.1336 H       1  ZINC000499369364    0.0900
      6 C6         -9.8769    1.7615   52.5700 C.3     1  ZINC000499369364   -0.1700
      7 N7        -11.0562   -0.1802   53.4759 N.am    1  ZINC000499369364   -0.7200
      8 C8        -12.3744   -0.4373   53.5899 C.2     1  ZINC000499369364    0.5100
      9 O9        -13.1317    0.4327   53.9650 O.2     1  ZINC000499369364   -0.5100
     10 C10       -12.9073   -1.8056   53.2514 C.3     1  ZINC000499369364    0.1200
     11 H11       -13.9963   -1.7619   53.2335 H       1  ZINC000499369364    0.1200
     12 C12       -12.4027   -2.2014   51.8451 C.3     1  ZINC000499369364   -0.0800
     13 S13       -10.9521   -3.2564   52.2649 S.3     1  ZINC000499369364   -0.2400
     14 C14       -11.7046   -3.8913   53.8202 C.3     1  ZINC000499369364    0.1400
     15 N15       -12.4934   -2.7385   54.2884 N.am    1  ZINC000499369364   -0.6000
     16 C16       -12.8128   -2.5602   55.5855 C.2     1  ZINC000499369364    0.5600
     17 O17       -13.4656   -1.5950   55.9222 O.2     1  ZINC000499369364   -0.5000
     18 C18       -12.3589   -3.5601   56.6176 C.3     1  ZINC000499369364   -0.1500
     19 S19       -12.4748   -2.8207   58.2657 S.3     1  ZINC000499369364    0.1300
     20 C20       -10.9370   -3.3471   58.9460 C.2     1  ZINC000499369364    0.2000
     21 N21       -10.3616   -4.5161   58.7652 N.2     1  ZINC000499369364   -0.3400
     22 N22        -9.2484   -4.5729   59.4029 N.2     1  ZINC000499369364   -0.0300
     23 N23        -9.0326   -3.4659   60.0271 N.2     1  ZINC000499369364   -0.0800
     24 N24       -10.1222   -2.6223   59.7486 N.pl3   1  ZINC000499369364   -0.3300
     25 C25       -10.3349   -1.2554   60.2306 C.3     1  ZINC000499369364    0.0500
     26 C26       -11.5142   -1.0149   61.1752 C.3     1  ZINC000499369364   -0.1500
     27 C27       -10.0829   -0.9825   61.7149 C.3     1  ZINC000499369364   -0.1600
     28 H28        -8.5531    2.3167   56.3710 H       1  ZINC000499369364    0.0600
     29 H29        -8.9257    3.1013   54.8174 H       1  ZINC000499369364    0.0600
     30 H30       -10.2307    2.7654   55.9803 H       1  ZINC000499369364    0.0600
     31 H31        -8.5636    0.6663   54.5203 H       1  ZINC000499369364    0.0800
     32 H32        -9.2798   -0.0373   56.7877 H       1  ZINC000499369364    0.0600
     33 H33       -10.9574    0.4115   56.3970 H       1  ZINC000499369364    0.0600
     34 H34       -10.1703   -0.9295   55.5308 H       1  ZINC000499369364    0.0500
     35 H35        -9.0564    1.1227   52.2430 H       1  ZINC000499369364    0.0600
     36 H36       -10.6120    1.8468   51.7697 H       1  ZINC000499369364    0.0600
     37 H37        -9.4912    2.7508   52.8160 H       1  ZINC000499369364    0.0700
     38 H38       -10.4508   -0.8756   53.1747 H       1  ZINC000499369364    0.4000
     39 H39       -13.1580   -2.7716   51.3042 H       1  ZINC000499369364    0.1200
     40 H40       -12.0966   -1.3228   51.2773 H       1  ZINC000499369364    0.1300
     41 H41       -12.3497   -4.7460   53.6167 H       1  ZINC000499369364    0.1100
     42 H42       -10.9331   -4.1517   54.5449 H       1  ZINC000499369364    0.1200
     43 H43       -12.9941   -4.4446   56.5707 H       1  ZINC000499369364    0.1300
     44 H44       -11.3254   -3.8439   56.4186 H       1  ZINC000499369364    0.1300
     45 H45       -10.0861   -0.4637   59.5240 H       1  ZINC000499369364    0.1600
     46 H46       -12.0416   -0.0648   61.0901 H       1  ZINC000499369364    0.1200
     47 H47       -12.1318   -1.8737   61.4380 H       1  ZINC000499369364    0.1200
     48 H48        -9.7589   -1.8201   62.3326 H       1  ZINC000499369364    0.1100
     49 H49        -9.6686   -0.0111   61.9848 H       1  ZINC000499369364    0.1200
@<TRIPOS>BOND
     1     1     2    1
     2     1    28    1
     3     1    29    1
     4     1    30    1
     5     2     3    1
     6     2     4    1
     7     2    31    1
     8     3    32    1
     9     3    33    1
    10     3    34    1
    11     4     5    1
    12     4     6    1
    13     4     7    1
    14     6    35    1
    15     6    36    1
    16     6    37    1
    17     7     8   am
    18     7    38    1
    19     8     9    2
    20     8    10    1
    21    10    11    1
    22    10    15    1
    23    10    12    1
    24    12    13    1
    25    12    39    1
    26    12    40    1
    27    13    14    1
    28    14    15    1
    29    14    41    1
    30    14    42    1
    31    15    16   am
    32    16    17    2
    33    16    18    1
    34    18    19    1
    35    18    43    1
    36    18    44    1
    37    19    20    1
    38    20    24    1
    39    20    21    2
    40    21    22    1
    41    22    23    2
    42    23    24    1
    43    24    25    1
    44    25    27    1
    45    25    26    1
    46    25    45    1
    47    26    27    1
    48    26    46    1
    49    26    47    1
    50    27    48    1
    51    27    49    1
@<TRIPOS>SUBSTRUCTURE
     1 ZINC000499369364        1 TEMP              0 ****  ****    0 ROOT


##########                                Name:    ZINC000477589488
##########                DOCK_Rotatable_Bonds:                   6
##########                         Heavy_Atoms:                  32
##########                    Molecular_Weight:             423.517
##########                DOCK_Rotatable_Bonds:                   6
##########                       Formal_Charge:        -8.19564e-07
##########                     HBond_Acceptors:                   6
##########                        HBond_Donors:                   1
##########                         Heavy_Atoms:                  32
##########                          Grid_Score:          -33.041386
##########                     Grid_vdw_energy:          -31.501703
##########                      Grid_es_energy:           -1.539682
##########           Internal_energy_repulsive:           19.656349

@<TRIPOS>MOLECULE
ZINC000477589488
 57 61 1 0 0
SMALL
USER_CHARGES


@<TRIPOS>ATOM
      1 O1        -11.2867   -3.2797   54.0392 O.2     1  ZINC000477589488   -0.5800
      2 C2        -11.6077   -2.1099   54.1233 C.2     1  ZINC000477589488    0.7100
      3 N3        -11.6878   -1.5182   55.3314 N.am    1  ZINC000477589488   -0.7400
      4 C4        -11.3939   -2.2860   56.5440 C.3     1  ZINC000477589488    0.2500
      5 H5        -10.3872   -2.6988   56.4776 H       1  ZINC000477589488    0.1100
      6 C6        -12.3893   -3.4091   56.6811 C.ar    1  ZINC000477589488   -0.0900
      7 C7        -11.9580   -4.7222   56.6521 C.ar    1  ZINC000477589488   -0.1000
      8 C8        -12.8710   -5.7525   56.7778 C.ar    1  ZINC000477589488   -0.1200
      9 C9        -14.2153   -5.4697   56.9332 C.ar    1  ZINC000477589488   -0.1200
     10 C10       -14.6464   -4.1566   56.9631 C.ar    1  ZINC000477589488   -0.1200
     11 C11       -13.7328   -3.1262   56.8417 C.ar    1  ZINC000477589488   -0.1000
     12 C12       -11.4878   -1.3820   57.7461 C.ar    1  ZINC000477589488   -0.0700
     13 C13       -10.7446   -1.6671   58.9039 C.ar    1  ZINC000477589488   -0.0400
     14 C14        -9.9022   -2.7900   58.9725 C.ar    1  ZINC000477589488   -0.1100
     15 C15        -9.1972   -3.0344   60.1105 C.ar    1  ZINC000477589488   -0.1100
     16 C16        -9.2974   -2.1872   61.2128 C.ar    1  ZINC000477589488   -0.1100
     17 C17       -10.1032   -1.0909   61.1830 C.ar    1  ZINC000477589488   -0.1100
     18 C18       -10.8462   -0.8052   60.0247 C.ar    1  ZINC000477589488   -0.0500
     19 C19       -11.6882    0.3174   59.9562 C.ar    1  ZINC000477589488   -0.1000
     20 C20       -12.3924    0.5626   58.8174 C.ar    1  ZINC000477589488   -0.1100
     21 C21       -12.2888   -0.2818   57.7139 C.ar    1  ZINC000477589488   -0.1100
     22 N22       -11.8781   -1.4036   53.0077 N.am    1  ZINC000477589488   -0.6300
     23 C23       -11.8026   -2.0314   51.6798 C.3     1  ZINC000477589488    0.1300
     24 C24       -13.1087   -1.7455   50.9311 C.3     1  ZINC000477589488    0.0500
     25 N25       -13.3563   -0.2976   50.9205 N.3     1  ZINC000477589488   -0.4700
     26 C26       -14.4440    0.0160   50.1129 C.ar    1  ZINC000477589488    0.2500
     27 C27       -14.4958    1.2431   49.4528 C.ar    1  ZINC000477589488   -0.1300
     28 C28       -15.6016    1.5072   48.6600 C.ar    1  ZINC000477589488   -0.0900
     29 C29       -16.5882    0.5354   48.5717 C.ar    1  ZINC000477589488    0.0200
     30 N30       -16.4575   -0.5987   49.2310 N.ar    1  ZINC000477589488   -0.2200
     31 N31       -15.4338   -0.8523   49.9626 N.ar    1  ZINC000477589488   -0.2800
     32 C32       -13.5447    0.2209   52.2820 C.3     1  ZINC000477589488    0.0400
     33 C33       -12.2624    0.0139   53.0864 C.3     1  ZINC000477589488    0.1200
     34 H34       -11.9399   -0.5840   55.3982 H       1  ZINC000477589488    0.3900
     35 H35       -10.9079   -4.9431   56.5307 H       1  ZINC000477589488    0.1100
     36 H36       -12.5342   -6.7783   56.7544 H       1  ZINC000477589488    0.1200
     37 H37       -14.9286   -6.2746   57.0307 H       1  ZINC000477589488    0.1200
     38 H38       -15.6966   -3.9357   57.0841 H       1  ZINC000477589488    0.1200
     39 H39       -14.0696   -2.1003   56.8651 H       1  ZINC000477589488    0.1200
     40 H40        -9.8151   -3.4557   58.1265 H       1  ZINC000477589488    0.1300
     41 H41        -8.5506   -3.8979   60.1605 H       1  ZINC000477589488    0.1300
     42 H42        -8.7272   -2.4042   62.1039 H       1  ZINC000477589488    0.1300
     43 H43       -10.1713   -0.4438   62.0450 H       1  ZINC000477589488    0.1300
     44 H44       -11.7765    0.9821   60.8028 H       1  ZINC000477589488    0.1300
     45 H45       -13.0393    1.4261   58.7675 H       1  ZINC000477589488    0.1300
     46 H46       -12.8582   -0.0643   56.8223 H       1  ZINC000477589488    0.1200
     47 H47       -10.9630   -1.6133   51.1243 H       1  ZINC000477589488    0.0800
     48 H48       -11.6722   -3.1079   51.7906 H       1  ZINC000477589488    0.1100
     49 H49       -13.0275   -2.1082   49.9064 H       1  ZINC000477589488    0.1000
     50 H50       -13.9335   -2.2519   51.4324 H       1  ZINC000477589488    0.0600
     51 H51       -13.6994    1.9653   49.5565 H       1  ZINC000477589488    0.1500
     52 H52       -15.6928    2.4421   48.1269 H       1  ZINC000477589488    0.1500
     53 H53       -17.4634    0.7083   47.9632 H       1  ZINC000477589488    0.1700
     54 H54       -13.7797    1.2843   52.2369 H       1  ZINC000477589488    0.1000
     55 H55       -14.3635   -0.3129   52.7644 H       1  ZINC000477589488    0.0600
     56 H56       -12.4339    0.2913   54.1264 H       1  ZINC000477589488    0.0800
     57 H57       -11.4645    0.6272   52.6677 H       1  ZINC000477589488    0.0900
@<TRIPOS>BOND
     1     1     2    2
     2     2     3   am
     3     2    22   am
     4     3     4    1
     5     3    34    1
     6     4     5    1
     7     4     6    1
     8     4    12    1
     9     6    11   ar
    10     6     7   ar
    11     7     8   ar
    12     7    35    1
    13     8     9   ar
    14     8    36    1
    15     9    10   ar
    16     9    37    1
    17    10    11   ar
    18    10    38    1
    19    11    39    1
    20    12    21   ar
    21    12    13   ar
    22    13    18   ar
    23    13    14   ar
    24    14    15   ar
    25    14    40    1
    26    15    16   ar
    27    15    41    1
    28    16    17   ar
    29    16    42    1
    30    17    18   ar
    31    17    43    1
    32    18    19   ar
    33    19    20   ar
    34    19    44    1
    35    20    21   ar
    36    20    45    1
    37    21    46    1
    38    22    33    1
    39    22    23    1
    40    23    24    1
    41    23    47    1
    42    23    48    1
    43    24    25    1
    44    24    49    1
    45    24    50    1
    46    25    26    1
    47    25    32    1
    48    26    31   ar
    49    26    27   ar
    50    27    28   ar
    51    27    51    1
    52    28    29   ar
    53    28    52    1
    54    29    30   ar
    55    29    53    1
    56    30    31   ar
    57    32    33    1
    58    32    54    1
    59    32    55    1
    60    33    56    1
    61    33    57    1
@<TRIPOS>SUBSTRUCTURE
     1 ZINC000477589488        1 TEMP              0 ****  ****    0 ROOT


##########                                Name:    ZINC000643274279
##########                DOCK_Rotatable_Bonds:                   6
##########                         Heavy_Atoms:                  29
##########                    Molecular_Weight:             392.454
##########                DOCK_Rotatable_Bonds:                   6
##########                       Formal_Charge:         -0.00999939
##########                     HBond_Acceptors:                   6
##########                        HBond_Donors:                   2
##########                         Heavy_Atoms:                  29
##########                          Grid_Score:          -33.038727
##########                     Grid_vdw_energy:          -32.161003
##########                      Grid_es_energy:           -0.877722
##########           Internal_energy_repulsive:           12.080081

@<TRIPOS>MOLECULE
ZINC000643274279
 53 56 1 0 0
SMALL
USER_CHARGES


@<TRIPOS>ATOM
      1 O1        -11.2436   -2.3069   56.9502 O.2     1  ZINC000643274279   -0.4900
      2 C2        -11.3884   -3.3831   57.4925 C.2     1  ZINC000643274279    0.5100
      3 N3        -12.2692   -4.2746   56.9968 N.am    1  ZINC000643274279   -0.6400
      4 C4        -13.0201   -3.9577   55.8614 C.ar    1  ZINC000643274279    0.1300
      5 C5        -14.4082   -4.0246   55.9068 C.ar    1  ZINC000643274279   -0.1000
      6 C6        -15.1599   -3.7239   54.7840 C.ar    1  ZINC000643274279   -0.1000
      7 C7        -14.5302   -3.3582   53.6149 C.ar    1  ZINC000643274279   -0.0600
      8 C8        -15.3473   -3.0958   52.3619 C.3     1  ZINC000643274279   -0.0900
      9 C9        -15.2636   -1.6154   52.0083 C.3     1  ZINC000643274279   -0.1200
     10 C10       -14.0552   -1.3189   51.1330 C.3     1  ZINC000643274279   -0.1100
     11 C11       -12.7342   -1.4066   51.8547 C.3     1  ZINC000643274279   -0.1600
     12 C12       -12.4859   -2.8294   52.3166 C.2     1  ZINC000643274279    0.4100
     13 O13       -11.7755   -3.5811   51.6838 O.2     1  ZINC000643274279   -0.4400
     14 C14       -13.1396   -3.2641   53.5633 C.ar    1  ZINC000643274279   -0.1300
     15 C15       -12.3792   -3.5712   54.6933 C.ar    1  ZINC000643274279   -0.1000
     16 C16       -10.5859   -3.7217   58.7058 C.2     1  ZINC000643274279    0.5200
     17 O17        -9.9641   -4.7630   58.7509 O.2     1  ZINC000643274279   -0.5000
     18 N18       -10.5522   -2.8710   59.7505 N.am    1  ZINC000643274279   -0.5800
     19 C19        -9.8047   -3.0787   61.0042 C.3     1  ZINC000643274279    0.0900
     20 C20        -9.5712   -1.6546   61.5672 C.3     1  ZINC000643274279   -0.1400
     21 C21       -10.9007   -0.9489   61.1909 C.3     1  ZINC000643274279   -0.1200
     22 C22       -11.2497   -1.5789   59.8262 C.3     1  ZINC000643274279    0.1800
     23 H23       -10.9174   -0.9248   59.0200 H       1  ZINC000643274279    0.0900
     24 C24       -12.7376   -1.7975   59.7281 C.ar    1  ZINC000643274279   -0.1000
     25 C25       -13.4825   -1.0752   58.8143 C.ar    1  ZINC000643274279   -0.0900
     26 C26       -14.8465   -1.2736   58.7225 C.ar    1  ZINC000643274279   -0.1400
     27 C27       -15.4687   -2.1990   59.5478 C.ar    1  ZINC000643274279    0.1100
     28 O28       -16.8104   -2.3964   59.4591 O.3     1  ZINC000643274279   -0.5000
     29 C29       -14.7190   -2.9228   60.4635 C.ar    1  ZINC000643274279   -0.1400
     30 C30       -13.3546   -2.7242   60.5481 C.ar    1  ZINC000643274279   -0.0900
     31 H31       -12.3819   -5.1362   57.4279 H       1  ZINC000643274279    0.4200
     32 H32       -14.9025   -4.3131   56.8228 H       1  ZINC000643274279    0.1400
     33 H33       -16.2378   -3.7764   54.8246 H       1  ZINC000643274279    0.1400
     34 H34       -14.9513   -3.6897   51.5381 H       1  ZINC000643274279    0.0800
     35 H35       -16.3871   -3.3690   52.5416 H       1  ZINC000643274279    0.0800
     36 H36       -16.1692   -1.3245   51.4758 H       1  ZINC000643274279    0.0800
     37 H37       -15.1896   -1.0333   52.9270 H       1  ZINC000643274279    0.0700
     38 H38       -14.0452   -2.0270   50.3044 H       1  ZINC000643274279    0.0700
     39 H39       -14.1611   -0.3139   50.7245 H       1  ZINC000643274279    0.0800
     40 H40       -11.9335   -1.1001   51.1816 H       1  ZINC000643274279    0.0900
     41 H41       -12.7502   -0.7433   52.7197 H       1  ZINC000643274279    0.0900
     42 H42       -11.3014   -3.5122   54.6571 H       1  ZINC000643274279    0.1300
     43 H43       -10.3944   -3.6713   61.7036 H       1  ZINC000643274279    0.0800
     44 H44        -8.8518   -3.5674   60.8010 H       1  ZINC000643274279    0.1000
     45 H45        -9.4344   -1.6795   62.6483 H       1  ZINC000643274279    0.0900
     46 H46        -8.7226   -1.1756   61.0786 H       1  ZINC000643274279    0.0800
     47 H47       -11.6738   -1.1644   61.9284 H       1  ZINC000643274279    0.0800
     48 H48       -10.7515    0.1262   61.0899 H       1  ZINC000643274279    0.0900
     49 H49       -12.9977   -0.3548   58.1720 H       1  ZINC000643274279    0.1200
     50 H50       -15.4281   -0.7086   58.0091 H       1  ZINC000643274279    0.1300
     51 H51       -17.2455   -1.8476   58.7923 H       1  ZINC000643274279    0.3900
     52 H52       -15.2012   -3.6436   61.1074 H       1  ZINC000643274279    0.1300
     53 H53       -12.7704   -3.2876   61.2606 H       1  ZINC000643274279    0.1300
@<TRIPOS>BOND
     1     1     2    2
     2     2     3   am
     3     2    16    1
     4     3     4    1
     5     3    31    1
     6     4    15   ar
     7     4     5   ar
     8     5     6   ar
     9     5    32    1
    10     6     7   ar
    11     6    33    1
    12     7    14   ar
    13     7     8    1
    14     8     9    1
    15     8    34    1
    16     8    35    1
    17     9    10    1
    18     9    36    1
    19     9    37    1
    20    10    11    1
    21    10    38    1
    22    10    39    1
    23    11    12    1
    24    11    40    1
    25    11    41    1
    26    12    13    2
    27    12    14    1
    28    14    15   ar
    29    15    42    1
    30    16    17    2
    31    16    18   am
    32    18    22    1
    33    18    19    1
    34    19    20    1
    35    19    43    1
    36    19    44    1
    37    20    21    1
    38    20    45    1
    39    20    46    1
    40    21    22    1
    41    21    47    1
    42    21    48    1
    43    22    23    1
    44    22    24    1
    45    24    30   ar
    46    24    25   ar
    47    25    26   ar
    48    25    49    1
    49    26    27   ar
    50    26    50    1
    51    27    28    1
    52    27    29   ar
    53    28    51    1
    54    29    30   ar
    55    29    52    1
    56    30    53    1
@<TRIPOS>SUBSTRUCTURE
     1 ZINC000643274279        1 TEMP              0 ****  ****    0 ROOT


##########                                Name:    ZINC000047262406
##########                DOCK_Rotatable_Bonds:                   6
##########                         Heavy_Atoms:                  28
##########                    Molecular_Weight:             417.919
##########                DOCK_Rotatable_Bonds:                   6
##########                       Formal_Charge:          -0.0100002
##########                     HBond_Acceptors:                   9
##########                        HBond_Donors:                   1
##########                         Heavy_Atoms:                  28
##########                          Grid_Score:          -33.037109
##########                     Grid_vdw_energy:          -32.422249
##########                      Grid_es_energy:           -0.614861
##########           Internal_energy_repulsive:           12.548898

@<TRIPOS>MOLECULE
ZINC000047262406
 48 51 1 0 0
SMALL
USER_CHARGES


@<TRIPOS>ATOM
      1 C1        -13.7030   -5.0063   54.9914 C.3     1  ZINC000047262406   -0.1500
      2 C2        -13.4062   -3.5068   55.0578 C.3     1  ZINC000047262406    0.1800
      3 H3        -14.2855   -2.9479   54.7377 H       1  ZINC000047262406    0.0800
      4 C4        -12.2475   -3.1834   54.1501 C.2     1  ZINC000047262406    0.1700
      5 N5        -11.6321   -4.0186   53.3615 N.2     1  ZINC000047262406   -0.2500
      6 N6        -10.6924   -3.4052   52.7323 N.2     1  ZINC000047262406   -0.2700
      7 C7        -10.6758   -2.1430   53.1020 C.2     1  ZINC000047262406    0.2400
      8 C8         -9.7549   -1.1037   52.6180 C.2     1  ZINC000047262406   -0.1500
      9 C9         -9.8656    0.2286   52.8757 C.2     1  ZINC000047262406   -0.0600
     10 C10        -8.8771    1.0028   52.3095 C.2     1  ZINC000047262406   -0.1400
     11 C11        -7.9659    0.3313   51.5977 C.2     1  ZINC000047262406   -0.1900
     12 S12        -8.3336   -1.3878   51.6216 S.3     1  ZINC000047262406    0.1700
     13 O13       -11.6659   -1.9790   54.0036 O.3     1  ZINC000047262406   -0.2200
     14 N14       -13.0656   -3.1357   56.4377 N.3     1  ZINC000047262406   -0.5200
     15 C15       -13.4700   -1.7538   56.7261 C.3     1  ZINC000047262406    0.0500
     16 C16       -13.2340   -1.4504   58.2074 C.3     1  ZINC000047262406   -0.1000
     17 C17       -11.7507   -1.6465   58.5335 C.3     1  ZINC000047262406   -0.1100
     18 C18       -11.5225   -1.4073   60.0038 C.2     1  ZINC000047262406    0.5100
     19 O19       -11.4631   -2.3464   60.7689 O.2     1  ZINC000047262406   -0.4600
     20 N20       -11.3842   -0.1497   60.4684 N.am    1  ZINC000047262406   -0.6600
     21 C21       -11.1730    0.0717   61.8290 C.ar    1  ZINC000047262406    0.3600
     22 C22        -9.9547   -0.2741   62.4015 C.ar    1  ZINC000047262406   -0.2000
     23 C23        -9.7575   -0.0489   63.7528 C.ar    1  ZINC000047262406   -0.0400
     24 C24       -10.7911    0.5169   64.4877 C.ar    1  ZINC000047262406   -0.1200
     25 Cl25      -10.5961    0.8211   66.1858 Cl      1  ZINC000047262406   -0.0500
     26 C26       -11.9766    0.8359   63.8524 C.ar    1  ZINC000047262406    0.1500
     27 N27       -12.1328    0.6139   62.5617 N.ar    1  ZINC000047262406   -0.4600
     28 C28       -11.3435   -3.0793   58.1788 C.3     1  ZINC000047262406   -0.1100
     29 C29       -11.6343   -3.3355   56.6984 C.3     1  ZINC000047262406    0.0600
     30 H30       -14.5410   -5.2402   55.6480 H       1  ZINC000047262406    0.0800
     31 H31       -13.9557   -5.2817   53.9675 H       1  ZINC000047262406    0.0700
     32 H32       -12.8236   -5.5653   55.3115 H       1  ZINC000047262406    0.0800
     33 H33       -10.6627    0.6440   53.4745 H       1  ZINC000047262406    0.1600
     34 H34        -8.8408    2.0754   52.4313 H       1  ZINC000047262406    0.1600
     35 H35        -7.1258    0.7785   51.0871 H       1  ZINC000047262406    0.1800
     36 H36       -12.8810   -1.0683   56.1167 H       1  ZINC000047262406    0.0400
     37 H37       -14.5276   -1.6288   56.4939 H       1  ZINC000047262406    0.0900
     38 H38       -13.5195   -0.4197   58.4178 H       1  ZINC000047262406    0.0800
     39 H39       -13.8331   -2.1264   58.8174 H       1  ZINC000047262406    0.0900
     40 H40       -11.1540   -0.9430   57.9531 H       1  ZINC000047262406    0.1000
     41 H41       -11.4318    0.6014   59.8564 H       1  ZINC000047262406    0.4200
     42 H42        -9.1724   -0.7129   61.8000 H       1  ZINC000047262406    0.1500
     43 H43        -8.8213   -0.3078   64.2250 H       1  ZINC000047262406    0.1500
     44 H44       -12.7838    1.2758   64.4194 H       1  ZINC000047262406    0.1700
     45 H45       -10.2784   -3.2124   58.3688 H       1  ZINC000047262406    0.0700
     46 H46       -11.9130   -3.7810   58.7883 H       1  ZINC000047262406    0.0800
     47 H47       -11.3587   -4.3594   56.4460 H       1  ZINC000047262406    0.0700
     48 H48       -11.0540   -2.6426   56.0890 H       1  ZINC000047262406    0.0400
@<TRIPOS>BOND
     1     1     2    1
     2     1    30    1
     3     1    31    1
     4     1    32    1
     5     2     3    1
     6     2     4    1
     7     2    14    1
     8     4    13    1
     9     4     5    2
    10     5     6    1
    11     6     7    2
    12     7     8    1
    13     7    13    1
    14     8    12    1
    15     8     9    2
    16     9    10    1
    17     9    33    1
    18    10    11    2
    19    10    34    1
    20    11    12    1
    21    11    35    1
    22    14    29    1
    23    14    15    1
    24    15    16    1
    25    15    36    1
    26    15    37    1
    27    16    17    1
    28    16    38    1
    29    16    39    1
    30    17    18    1
    31    17    28    1
    32    17    40    1
    33    18    19    2
    34    18    20   am
    35    20    21    1
    36    20    41    1
    37    21    27   ar
    38    21    22   ar
    39    22    23   ar
    40    22    42    1
    41    23    24   ar
    42    23    43    1
    43    24    25    1
    44    24    26   ar
    45    26    27   ar
    46    26    44    1
    47    28    29    1
    48    28    45    1
    49    28    46    1
    50    29    47    1
    51    29    48    1
@<TRIPOS>SUBSTRUCTURE
     1 ZINC000047262406        1 TEMP              0 ****  ****    0 ROOT


##########                                Name:    ZINC000440379747
##########                DOCK_Rotatable_Bonds:                   8
##########                         Heavy_Atoms:                  27
##########                    Molecular_Weight:             394.452
##########                DOCK_Rotatable_Bonds:                   8
##########                       Formal_Charge:           0.0199995
##########                     HBond_Acceptors:                  10
##########                        HBond_Donors:                   3
##########                         Heavy_Atoms:                  27
##########                          Grid_Score:          -32.958897
##########                     Grid_vdw_energy:          -31.440151
##########                      Grid_es_energy:           -1.518746
##########           Internal_energy_repulsive:           20.896275

@<TRIPOS>MOLECULE
ZINC000440379747
 49 51 1 0 0
SMALL
USER_CHARGES


@<TRIPOS>ATOM
      1 C1         -9.1791    0.0093   67.4830 C.3     1  ZINC000440379747   -0.1800
      2 C2         -9.1637   -0.5011   66.0651 C.2     1  ZINC000440379747    0.5200
      3 O3         -8.6286   -1.5588   65.8071 O.2     1  ZINC000440379747   -0.5200
      4 N4         -9.7441    0.2175   65.0837 N.am    1  ZINC000440379747   -0.5500
      5 C5        -10.4186    1.5047   65.2716 C.3     1  ZINC000440379747    0.1100
      6 C6        -10.9057    1.9132   63.8719 C.3     1  ZINC000440379747   -0.0900
      7 C7        -10.4546    0.7882   62.9677 C.ar    1  ZINC000440379747   -0.1100
      8 C8        -10.6077    0.6047   61.6079 C.ar    1  ZINC000440379747   -0.0700
      9 C9        -10.0950   -0.5325   60.9965 C.ar    1  ZINC000440379747    0.1200
     10 N10       -10.2488   -0.7198   59.6194 N.am    1  ZINC000440379747   -0.6400
     11 C11       -11.2242   -1.5248   59.1536 C.2     1  ZINC000440379747    0.5100
     12 O12       -11.9691   -2.0874   59.9295 O.2     1  ZINC000440379747   -0.4900
     13 C13       -11.3885   -1.7248   57.6828 C.2     1  ZINC000440379747    0.5200
     14 O14       -10.4225   -1.6646   56.9506 O.2     1  ZINC000440379747   -0.5100
     15 N15       -12.6095   -1.9722   57.1686 N.am    1  ZINC000440379747   -0.5800
     16 C16       -13.8624   -2.0717   57.9394 C.3     1  ZINC000440379747    0.1000
     17 C17       -14.9816   -1.7391   56.9213 C.3     1  ZINC000440379747   -0.1300
     18 C18       -14.4362   -2.4047   55.6302 C.3     1  ZINC000440379747   -0.1600
     19 C19       -12.9136   -2.1814   55.7455 C.3     1  ZINC000440379747    0.1500
     20 H20       -12.6226   -1.3049   55.1665 H       1  ZINC000440379747    0.1000
     21 C21       -12.1666   -3.4146   55.2334 C.3     1  ZINC000440379747   -0.6500
     22 S22       -12.0080   -3.3193   53.4289 S.o2    1  ZINC000440379747    2.6200
     23 N23       -10.8471   -2.1657   53.1765 N.am    1  ZINC000440379747   -1.2500
     24 O24       -11.4334   -4.5131   52.9151 O.2     1  ZINC000440379747   -0.9500
     25 O25       -13.1833   -2.7653   52.8536 O.2     1  ZINC000440379747   -0.9500
     26 C26        -9.4284   -1.4826   61.7600 C.ar    1  ZINC000440379747   -0.1000
     27 C27        -9.2767   -1.2973   63.1168 C.ar    1  ZINC000440379747   -0.1400
     28 C28        -9.7855   -0.1532   63.7347 C.ar    1  ZINC000440379747    0.1400
     29 H29        -8.6656   -0.7012   68.1305 H       1  ZINC000440379747    0.1000
     30 H30        -8.6725    0.9734   67.5275 H       1  ZINC000440379747    0.1000
     31 H31       -10.2104    0.1250   67.8161 H       1  ZINC000440379747    0.1000
     32 H32       -11.2654    1.3924   65.9488 H       1  ZINC000440379747    0.0900
     33 H33        -9.7191    2.2451   65.6595 H       1  ZINC000440379747    0.0900
     34 H34       -11.9922    1.9998   63.8578 H       1  ZINC000440379747    0.0900
     35 H35       -10.4447    2.8531   63.5684 H       1  ZINC000440379747    0.1000
     36 H36       -11.1271    1.3460   61.0189 H       1  ZINC000440379747    0.1400
     37 H37        -9.6535   -0.2704   58.9993 H       1  ZINC000440379747    0.4200
     38 H38       -13.9901   -3.0824   58.3269 H       1  ZINC000440379747    0.0800
     39 H39       -13.8643   -1.3486   58.7550 H       1  ZINC000440379747    0.1000
     40 H40       -15.9287   -2.1872   57.2217 H       1  ZINC000440379747    0.1000
     41 H41       -15.0846   -0.6617   56.7919 H       1  ZINC000440379747    0.0800
     42 H42       -14.6735   -3.4683   55.6148 H       1  ZINC000440379747    0.1000
     43 H43       -14.8305   -1.9074   54.7439 H       1  ZINC000440379747    0.1000
     44 H44       -11.1748   -3.4516   55.6839 H       1  ZINC000440379747    0.1500
     45 H45       -12.7217   -4.3132   55.5025 H       1  ZINC000440379747    0.1400
     46 H46       -10.5837   -1.9322   52.2726 H       1  ZINC000440379747    0.4100
     47 H47       -10.4303   -1.7235   53.9326 H       1  ZINC000440379747    0.4200
     48 H48        -9.0285   -2.3683   61.2890 H       1  ZINC000440379747    0.1400
     49 H49        -8.7578   -2.0395   63.7052 H       1  ZINC000440379747    0.1500
@<TRIPOS>BOND
     1     1     2    1
     2     1    29    1
     3     1    30    1
     4     1    31    1
     5     2     3    2
     6     2     4   am
     7     4    28    1
     8     4     5    1
     9     5     6    1
    10     5    32    1
    11     5    33    1
    12     6     7    1
    13     6    34    1
    14     6    35    1
    15     7    28   ar
    16     7     8   ar
    17     8     9   ar
    18     8    36    1
    19     9    10    1
    20     9    26   ar
    21    10    11   am
    22    10    37    1
    23    11    12    2
    24    11    13    1
    25    13    14    2
    26    13    15   am
    27    15    19    1
    28    15    16    1
    29    16    17    1
    30    16    38    1
    31    16    39    1
    32    17    18    1
    33    17    40    1
    34    17    41    1
    35    18    19    1
    36    18    42    1
    37    18    43    1
    38    19    20    1
    39    19    21    1
    40    21    22    1
    41    21    44    1
    42    21    45    1
    43    22    23   am
    44    22    24    2
    45    22    25    2
    46    23    46    1
    47    23    47    1
    48    26    27   ar
    49    26    48    1
    50    27    28   ar
    51    27    49    1
@<TRIPOS>SUBSTRUCTURE
     1 ZINC000440379747        1 TEMP              0 ****  ****    0 ROOT


##########                                Name:    ZINC001011676549
##########                DOCK_Rotatable_Bonds:                   6
##########                         Heavy_Atoms:                  24
##########                    Molecular_Weight:             330.387
##########                DOCK_Rotatable_Bonds:                   6
##########                       Formal_Charge:        -1.49012e-07
##########                     HBond_Acceptors:                   7
##########                        HBond_Donors:                   1
##########                         Heavy_Atoms:                  24
##########                          Grid_Score:          -32.937332
##########                     Grid_vdw_energy:          -33.106510
##########                      Grid_es_energy:            0.169176
##########           Internal_energy_repulsive:           20.259575

@<TRIPOS>MOLECULE
ZINC001011676549
 46 48 1 0 0
SMALL
USER_CHARGES


@<TRIPOS>ATOM
      1 C1        -12.0256   -2.3230   56.1499 C.3     1  ZINC001011676549   -0.1700
      2 C2        -12.0804   -3.8291   55.8860 C.3     1  ZINC001011676549    0.1300
      3 H3        -11.1733   -4.1487   55.3731 H       1  ZINC001011676549    0.0900
      4 C4        -12.2248   -4.5908   57.2204 C.3     1  ZINC001011676549    0.1400
      5 H5        -11.6738   -5.5307   57.1895 H       1  ZINC001011676549    0.1100
      6 N6        -11.7720   -3.7633   58.3413 N.am    1  ZINC001011676549   -0.7200
      7 C7        -10.7284   -4.1624   59.0950 C.2     1  ZINC001011676549    0.5200
      8 O8        -10.1652   -5.2073   58.8463 O.2     1  ZINC001011676549   -0.5300
      9 C9        -10.2614   -3.3102   60.2469 C.3     1  ZINC001011676549   -0.0900
     10 C10       -10.5699   -1.8635   59.9588 C.ar    1  ZINC001011676549   -0.1800
     11 C11        -9.6849   -1.0797   59.2352 C.ar    1  ZINC001011676549    0.1600
     12 N12        -9.9895    0.1867   59.0017 N.ar    1  ZINC001011676549   -0.5200
     13 C13       -11.1169    0.7034   59.4477 C.ar    1  ZINC001011676549    0.3000
     14 N14       -11.9819   -0.0114   60.1389 N.ar    1  ZINC001011676549   -0.5200
     15 C15       -11.7477   -1.2862   60.4062 C.ar    1  ZINC001011676549    0.1600
     16 C16       -13.7518   -4.8522   57.3078 C.3     1  ZINC001011676549   -0.1400
     17 C17       -14.1120   -5.0915   55.8203 C.3     1  ZINC001011676549    0.1000
     18 N18       -13.2579   -4.1506   55.0665 N.am    1  ZINC001011676549   -0.6100
     19 C19       -13.5183   -3.6668   53.8358 C.2     1  ZINC001011676549    0.5800
     20 O20       -14.5309   -4.0028   53.2520 O.2     1  ZINC001011676549   -0.5300
     21 C21       -12.5776   -2.7324   53.1987 C.2     1  ZINC001011676549   -0.1400
     22 C22       -12.9406   -1.4727   53.0376 C.2     1  ZINC001011676549   -0.1500
     23 C23       -12.0497   -0.4505   52.3901 C.3     1  ZINC001011676549    0.0900
     24 O24       -10.7067   -0.9353   52.3332 O.3     1  ZINC001011676549   -0.3800
     25 C25       -10.6070   -2.2500   51.7725 C.3     1  ZINC001011676549    0.0600
     26 C26       -11.2330   -3.2428   52.7583 C.3     1  ZINC001011676549   -0.1100
     27 H27       -12.9408   -2.0085   56.6517 H       1  ZINC001011676549    0.0600
     28 H28       -11.1678   -2.0961   56.7829 H       1  ZINC001011676549    0.0700
     29 H29       -11.9292   -1.7916   55.2032 H       1  ZINC001011676549    0.0800
     30 H30       -12.2232   -2.9282   58.5409 H       1  ZINC001011676549    0.4100
     31 H31       -10.7759   -3.6170   61.1576 H       1  ZINC001011676549    0.1100
     32 H32        -9.1864   -3.4334   60.3777 H       1  ZINC001011676549    0.1100
     33 H33        -8.7592   -1.4968   58.8672 H       1  ZINC001011676549    0.1700
     34 H34       -11.3377    1.7403   59.2415 H       1  ZINC001011676549    0.2000
     35 H35       -12.4610   -1.8666   60.9728 H       1  ZINC001011676549    0.1700
     36 H36       -13.9629   -5.7372   57.9081 H       1  ZINC001011676549    0.0900
     37 H37       -14.2754   -3.9811   57.7013 H       1  ZINC001011676549    0.0800
     38 H38       -13.8851   -6.1189   55.5355 H       1  ZINC001011676549    0.0800
     39 H39       -15.1652   -4.8721   55.6449 H       1  ZINC001011676549    0.0800
     40 H40       -13.9160   -1.1653   53.3847 H       1  ZINC001011676549    0.1200
     41 H41       -12.4047   -0.2500   51.3792 H       1  ZINC001011676549    0.0700
     42 H42       -12.0766    0.4720   52.9702 H       1  ZINC001011676549    0.1100
     43 H43       -11.1411   -2.2848   50.8230 H       1  ZINC001011676549    0.0600
     44 H44        -9.5583   -2.5028   51.6159 H       1  ZINC001011676549    0.1000
     45 H45       -10.5797   -3.3561   53.6234 H       1  ZINC001011676549    0.0900
     46 H46       -11.3587   -4.2090   52.2697 H       1  ZINC001011676549    0.0900
@<TRIPOS>BOND
     1     1     2    1
     2     1    27    1
     3     1    28    1
     4     1    29    1
     5     2     3    1
     6     2    18    1
     7     2     4    1
     8     4     5    1
     9     4     6    1
    10     4    16    1
    11     6     7   am
    12     6    30    1
    13     7     8    2
    14     7     9    1
    15     9    10    1
    16     9    31    1
    17     9    32    1
    18    10    15   ar
    19    10    11   ar
    20    11    12   ar
    21    11    33    1
    22    12    13   ar
    23    13    14   ar
    24    13    34    1
    25    14    15   ar
    26    15    35    1
    27    16    17    1
    28    16    36    1
    29    16    37    1
    30    17    18    1
    31    17    38    1
    32    17    39    1
    33    18    19   am
    34    19    20    2
    35    19    21    1
    36    21    26    1
    37    21    22    2
    38    22    23    1
    39    22    40    1
    40    23    24    1
    41    23    41    1
    42    23    42    1
    43    24    25    1
    44    25    26    1
    45    25    43    1
    46    25    44    1
    47    26    45    1
    48    26    46    1
@<TRIPOS>SUBSTRUCTURE
     1 ZINC001011676549        1 TEMP              0 ****  ****    0 ROOT


##########                                Name:    ZINC001291841503
##########                DOCK_Rotatable_Bonds:                   7
##########                         Heavy_Atoms:                  28
##########                    Molecular_Weight:             397.544
##########                DOCK_Rotatable_Bonds:                   7
##########                       Formal_Charge:         -0.00999964
##########                     HBond_Acceptors:                   7
##########                        HBond_Donors:                   0
##########                         Heavy_Atoms:                  28
##########                          Grid_Score:          -32.929512
##########                     Grid_vdw_energy:          -32.150894
##########                      Grid_es_energy:           -0.778619
##########           Internal_energy_repulsive:           15.738472

@<TRIPOS>MOLECULE
ZINC001291841503
 55 58 1 0 0
SMALL
USER_CHARGES


@<TRIPOS>ATOM
      1 C1        -10.3467   -3.4816   60.2035 C.3     1  ZINC001291841503   -0.1500
      2 C2        -10.5113   -3.7267   58.7022 C.3     1  ZINC001291841503   -0.1100
      3 C3        -11.3917   -2.6300   58.0999 C.3     1  ZINC001291841503    0.0500
      4 H4        -10.9868   -1.6530   58.3640 H       1  ZINC001291841503    0.0900
      5 C5        -11.4180   -2.7740   56.6000 C.2     1  ZINC001291841503    0.2000
      6 N6        -11.2095   -3.8693   55.9257 N.2     1  ZINC001291841503   -0.2700
      7 N7        -11.3073   -3.6363   54.6655 N.2     1  ZINC001291841503   -0.3100
      8 C8        -11.5857   -2.3695   54.4666 C.2     1  ZINC001291841503    0.3600
      9 N9        -11.7653   -1.7480   53.2410 N.3     1  ZINC001291841503   -0.4500
     10 C10       -10.4835   -1.5798   52.5433 C.3     1  ZINC001291841503    0.0200
     11 C11       -12.7235   -2.4893   52.4102 C.3     1  ZINC001291841503    0.0700
     12 H12       -12.3575   -3.4947   52.2022 H       1  ZINC001291841503    0.0800
     13 C13       -14.1200   -2.5387   53.0880 C.3     1  ZINC001291841503   -0.1400
     14 C14       -15.0437   -2.6593   51.8498 C.3     1  ZINC001291841503    0.0500
     15 O15       -14.4242   -1.8481   50.8391 O.3     1  ZINC001291841503   -0.3800
     16 C16       -13.0170   -1.7291   51.0989 C.3     1  ZINC001291841503    0.0600
     17 N17       -11.6709   -1.7809   55.6947 N.pl3   1  ZINC001291841503   -0.4700
     18 C18       -11.9629   -0.3746   55.9832 C.3     1  ZINC001291841503    0.1900
     19 C19       -10.6725    0.3711   56.2060 C.2     1  ZINC001291841503   -0.2700
     20 C20        -9.5316   -0.1516   56.6655 C.2     1  ZINC001291841503    0.0800
     21 N21        -8.5400    0.7097   56.7728 N.2     1  ZINC001291841503   -0.4800
     22 C22        -8.7810    1.9298   56.4294 C.2     1  ZINC001291841503    0.0500
     23 C23        -7.7791    3.0544   56.4813 C.3     1  ZINC001291841503   -0.0800
     24 S24       -10.3992    2.0846   55.8997 S.3     1  ZINC001291841503    0.1800
     25 C25       -12.7924   -2.7563   58.6413 C.ar    1  ZINC001291841503   -0.0900
     26 C26       -13.2729   -1.8222   59.5399 C.ar    1  ZINC001291841503   -0.0900
     27 C27       -14.5577   -1.9380   60.0365 C.ar    1  ZINC001291841503   -0.1200
     28 C28       -15.3623   -2.9875   59.6341 C.ar    1  ZINC001291841503   -0.1200
     29 C29       -14.8822   -3.9211   58.7348 C.ar    1  ZINC001291841503   -0.1200
     30 C30       -13.5988   -3.8029   58.2348 C.ar    1  ZINC001291841503   -0.1100
     31 H31        -9.8782   -2.5106   60.3639 H       1  ZINC001291841503    0.0500
     32 H32       -11.3252   -3.4966   60.6835 H       1  ZINC001291841503    0.0500
     33 H33        -9.7195   -4.2630   60.6326 H       1  ZINC001291841503    0.0600
     34 H34        -9.5329   -3.7116   58.2222 H       1  ZINC001291841503    0.0800
     35 H35       -10.9798   -4.6978   58.5419 H       1  ZINC001291841503    0.0800
     36 H36       -10.0744   -2.5589   52.2936 H       1  ZINC001291841503    0.0500
     37 H37       -10.6399   -1.0076   51.6289 H       1  ZINC001291841503    0.0900
     38 H38        -9.7850   -1.0483   53.1895 H       1  ZINC001291841503    0.0700
     39 H39       -14.2127   -3.4119   53.7338 H       1  ZINC001291841503    0.0900
     40 H40       -14.3214   -1.6209   53.6403 H       1  ZINC001291841503    0.0800
     41 H41       -15.1007   -3.6967   51.5200 H       1  ZINC001291841503    0.0700
     42 H42       -16.0390   -2.2801   52.0818 H       1  ZINC001291841503    0.0900
     43 H43       -12.7501   -0.6787   51.2160 H       1  ZINC001291841503    0.0800
     44 H44       -12.4508   -2.1663   50.2766 H       1  ZINC001291841503    0.0700
     45 H45       -12.4963    0.0659   55.1408 H       1  ZINC001291841503    0.1100
     46 H46       -12.5803   -0.3081   56.8790 H       1  ZINC001291841503    0.1100
     47 H47        -9.4306   -1.1945   56.9274 H       1  ZINC001291841503    0.1700
     48 H48        -7.2475    3.1116   55.5314 H       1  ZINC001291841503    0.0900
     49 H49        -8.2980    3.9953   56.6644 H       1  ZINC001291841503    0.0800
     50 H50        -7.0669    2.8698   57.2856 H       1  ZINC001291841503    0.0900
     51 H51       -12.6443   -1.0022   59.8543 H       1  ZINC001291841503    0.1300
     52 H52       -14.9328   -1.2085   60.7392 H       1  ZINC001291841503    0.1200
     53 H53       -16.3659   -3.0784   60.0226 H       1  ZINC001291841503    0.1200
     54 H54       -15.5107   -4.7413   58.4206 H       1  ZINC001291841503    0.1200
     55 H55       -13.2237   -4.5322   57.5322 H       1  ZINC001291841503    0.1200
@<TRIPOS>BOND
     1     1     2    1
     2     1    31    1
     3     1    32    1
     4     1    33    1
     5     2     3    1
     6     2    34    1
     7     2    35    1
     8     3     4    1
     9     3     5    1
    10     3    25    1
    11     5    17    1
    12     5     6    2
    13     6     7    1
    14     7     8    2
    15     8     9    1
    16     8    17    1
    17     9    10    1
    18     9    11    1
    19    10    36    1
    20    10    37    1
    21    10    38    1
    22    11    12    1
    23    11    16    1
    24    11    13    1
    25    13    14    1
    26    13    39    1
    27    13    40    1
    28    14    15    1
    29    14    41    1
    30    14    42    1
    31    15    16    1
    32    16    43    1
    33    16    44    1
    34    17    18    1
    35    18    19    1
    36    18    45    1
    37    18    46    1
    38    19    24    1
    39    19    20    2
    40    20    21    1
    41    20    47    1
    42    21    22    2
    43    22    23    1
    44    22    24    1
    45    23    48    1
    46    23    49    1
    47    23    50    1
    48    25    30   ar
    49    25    26   ar
    50    26    27   ar
    51    26    51    1
    52    27    28   ar
    53    27    52    1
    54    28    29   ar
    55    28    53    1
    56    29    30   ar
    57    29    54    1
    58    30    55    1
@<TRIPOS>SUBSTRUCTURE
     1 ZINC001291841503        1 TEMP              0 ****  ****    0 ROOT


##########                                Name:    ZINC001220212140
##########                DOCK_Rotatable_Bonds:                   6
##########                         Heavy_Atoms:                  28
##########                    Molecular_Weight:             379.459
##########                DOCK_Rotatable_Bonds:                   6
##########                       Formal_Charge:         -0.00999925
##########                     HBond_Acceptors:                   6
##########                        HBond_Donors:                   1
##########                         Heavy_Atoms:                  28
##########                          Grid_Score:          -32.911709
##########                     Grid_vdw_energy:          -33.434586
##########                      Grid_es_energy:            0.522876
##########           Internal_energy_repulsive:           13.494802

@<TRIPOS>MOLECULE
ZINC001220212140
 53 56 1 0 0
SMALL
USER_CHARGES


@<TRIPOS>ATOM
      1 C1        -10.2119    0.4320   54.8352 C.3     1  ZINC001220212140   -0.1700
      2 C2        -10.7459    0.6004   53.4113 C.3     1  ZINC001220212140    0.0800
      3 H3        -11.8285    0.7270   53.4190 H       1  ZINC001220212140    0.1200
      4 C4        -10.0596    1.7942   52.7063 C.3     1  ZINC001220212140   -0.1100
      5 C5         -8.9042    1.1165   51.9951 C.ar    1  ZINC001220212140   -0.1500
      6 C6         -7.7563    1.6123   51.4195 C.ar    1  ZINC001220212140   -0.0700
      7 C7         -6.8455    0.7439   50.8301 C.ar    1  ZINC001220212140    0.1400
      8 N8         -5.6748    1.2426   50.2429 N.am    1  ZINC001220212140   -0.6800
      9 C9         -4.7506    1.8623   51.0033 C.2     1  ZINC001220212140    0.7200
     10 O10        -4.9324    1.9886   52.1989 O.2     1  ZINC001220212140   -0.5700
     11 N11        -3.6247    2.3420   50.4386 N.am    1  ZINC001220212140   -0.6300
     12 C12        -2.5392    3.0358   51.1471 C.3     1  ZINC001220212140    0.0900
     13 C13        -1.4538    3.3740   50.1037 C.3     1  ZINC001220212140   -0.1100
     14 C14        -1.7315    2.3523   48.9695 C.3     1  ZINC001220212140   -0.1300
     15 H15        -1.2751    1.3878   49.1920 H       1  ZINC001220212140    0.1200
     16 C16        -1.2552    2.8782   47.6400 C.2     1  ZINC001220212140    0.5300
     17 O17        -0.7220    3.9655   47.5739 O.2     1  ZINC001220212140   -0.5100
     18 N18        -1.4217    2.1402   46.5246 N.am    1  ZINC001220212140   -0.5700
     19 C19        -2.0658    0.8269   46.6046 C.3     1  ZINC001220212140    0.0700
     20 C20        -0.9794    2.6286   45.2902 C.ar    1  ZINC001220212140    0.1400
     21 C21        -1.6187    3.7114   44.7008 C.ar    1  ZINC001220212140   -0.1100
     22 C22        -1.1797    4.1911   43.4823 C.ar    1  ZINC001220212140   -0.1100
     23 C23        -0.1050    3.5940   42.8491 C.ar    1  ZINC001220212140   -0.1200
     24 C24         0.5333    2.5154   43.4332 C.ar    1  ZINC001220212140   -0.1100
     25 C25         0.1034    2.0351   44.6546 C.ar    1  ZINC001220212140   -0.1200
     26 C26        -3.2747    2.2523   49.0094 C.3     1  ZINC001220212140    0.1400
     27 C27        -7.1016   -0.6204   50.8270 C.ar    1  ZINC001220212140   -0.1100
     28 C28        -8.2546   -1.1127   51.4016 C.ar    1  ZINC001220212140   -0.1200
     29 C29        -9.1722   -0.2466   51.9902 C.ar    1  ZINC001220212140    0.0900
     30 O30       -10.3697   -0.5184   52.5906 O.3     1  ZINC001220212140   -0.3000
     31 H31        -9.1310    0.2947   54.8040 H       1  ZINC001220212140    0.0600
     32 H32       -10.4485    1.3211   55.4195 H       1  ZINC001220212140    0.0800
     33 H33       -10.6757   -0.4399   55.2964 H       1  ZINC001220212140    0.0700
     34 H34       -10.7347    2.2649   51.9916 H       1  ZINC001220212140    0.0900
     35 H35        -9.6970    2.5203   53.4339 H       1  ZINC001220212140    0.0900
     36 H36        -7.5636    2.6749   51.4260 H       1  ZINC001220212140    0.1400
     37 H37        -5.5296    1.1418   49.2891 H       1  ZINC001220212140    0.4100
     38 H38        -2.9179    3.9528   51.5987 H       1  ZINC001220212140    0.0700
     39 H39        -2.1237    2.3853   51.9168 H       1  ZINC001220212140    0.0700
     40 H40        -1.5724    4.3949   49.7407 H       1  ZINC001220212140    0.1000
     41 H41        -0.4578    3.2254   50.5211 H       1  ZINC001220212140    0.0900
     42 H42        -3.1415    0.9409   46.4702 H       1  ZINC001220212140    0.0700
     43 H43        -1.6688    0.1793   45.8229 H       1  ZINC001220212140    0.0800
     44 H44        -1.8666    0.3832   47.5800 H       1  ZINC001220212140    0.0800
     45 H45        -2.4584    4.1777   45.1945 H       1  ZINC001220212140    0.1200
     46 H46        -1.6764    5.0332   43.0234 H       1  ZINC001220212140    0.1300
     47 H47         0.2361    3.9707   41.8961 H       1  ZINC001220212140    0.1300
     48 H48         1.3718    2.0509   42.9357 H       1  ZINC001220212140    0.1300
     49 H49         0.6023    1.1927   45.1103 H       1  ZINC001220212140    0.1200
     50 H50        -3.6040    1.3000   48.5937 H       1  ZINC001220212140    0.0900
     51 H51        -3.7228    3.0814   48.4618 H       1  ZINC001220212140    0.0700
     52 H52        -6.3952   -1.2990   50.3721 H       1  ZINC001220212140    0.1300
     53 H53        -8.4466   -2.1756   51.3951 H       1  ZINC001220212140    0.1300
@<TRIPOS>BOND
     1     1     2    1
     2     1    31    1
     3     1    32    1
     4     1    33    1
     5     2     3    1
     6     2    30    1
     7     2     4    1
     8     4     5    1
     9     4    34    1
    10     4    35    1
    11     5    29   ar
    12     5     6   ar
    13     6     7   ar
    14     6    36    1
    15     7     8    1
    16     7    27   ar
    17     8     9   am
    18     8    37    1
    19     9    10    2
    20     9    11   am
    21    11    26    1
    22    11    12    1
    23    12    13    1
    24    12    38    1
    25    12    39    1
    26    13    14    1
    27    13    40    1
    28    13    41    1
    29    14    15    1
    30    14    16    1
    31    14    26    1
    32    16    17    2
    33    16    18   am
    34    18    19    1
    35    18    20    1
    36    19    42    1
    37    19    43    1
    38    19    44    1
    39    20    25   ar
    40    20    21   ar
    41    21    22   ar
    42    21    45    1
    43    22    23   ar
    44    22    46    1
    45    23    24   ar
    46    23    47    1
    47    24    25   ar
    48    24    48    1
    49    25    49    1
    50    26    50    1
    51    26    51    1
    52    27    28   ar
    53    27    52    1
    54    28    29   ar
    55    28    53    1
    56    29    30    1
@<TRIPOS>SUBSTRUCTURE
     1 ZINC001220212140        1 TEMP              0 ****  ****    0 ROOT


##########                                Name:    ZINC000646817380
##########                DOCK_Rotatable_Bonds:                   6
##########                         Heavy_Atoms:                  25
##########                    Molecular_Weight:             347.457
##########                DOCK_Rotatable_Bonds:                   6
##########                       Formal_Charge:           0.0199991
##########                     HBond_Acceptors:                   6
##########                        HBond_Donors:                   1
##########                         Heavy_Atoms:                  25
##########                          Grid_Score:          -32.910957
##########                     Grid_vdw_energy:          -32.853573
##########                      Grid_es_energy:           -0.057386
##########           Internal_energy_repulsive:           64.609261

@<TRIPOS>MOLECULE
ZINC000646817380
 54 56 1 0 0
SMALL
USER_CHARGES


@<TRIPOS>ATOM
      1 C1         -0.8170    2.6252   50.3030 C.3     1  ZINC000646817380   -0.1500
      2 C2         -2.0113    3.2399   49.5703 C.3     1  ZINC000646817380   -0.0100
      3 C3         -1.9128    2.9210   48.0772 C.3     1  ZINC000646817380   -0.1500
      4 C4         -3.2900    2.6654   50.1235 C.2     1  ZINC000646817380   -0.0100
      5 C5         -3.8379    1.4681   49.8149 C.2     1  ZINC000646817380   -0.2200
      6 C6         -5.0193    1.4189   50.6022 C.2     1  ZINC000646817380    0.2400
      7 N7         -5.9499    0.3826   50.6506 N.am    1  ZINC000646817380   -0.6100
      8 C8         -7.0175    0.4734   51.4681 C.2     1  ZINC000646817380    0.5200
      9 O9         -7.1692    1.4580   52.1611 O.2     1  ZINC000646817380   -0.4900
     10 C10        -8.0140   -0.6381   51.5214 C.2     1  ZINC000646817380    0.5300
     11 O11        -7.7241   -1.7342   51.0886 O.2     1  ZINC000646817380   -0.5100
     12 N12        -9.2351   -0.4238   52.0501 N.am    1  ZINC000646817380   -0.5800
     13 C13        -9.7160    0.8487   52.6076 C.3     1  ZINC000646817380    0.1000
     14 C14       -11.1539    0.6121   53.1156 C.3     1  ZINC000646817380   -0.1300
     15 C15       -11.1985   -0.9239   53.3298 C.3     1  ZINC000646817380   -0.1000
     16 H16       -10.7692   -1.1966   54.2939 H       1  ZINC000646817380    0.1000
     17 C17       -12.6274   -1.4546   53.1992 C.3     1  ZINC000646817380   -0.0700
     18 H18       -13.1950   -0.8321   52.5074 H       1  ZINC000646817380    0.0800
     19 C19       -12.6056   -2.9143   52.7003 C.3     1  ZINC000646817380   -0.1300
     20 C20       -13.7666   -3.5952   53.4668 C.3     1  ZINC000646817380   -0.1300
     21 C21       -13.6813   -2.9407   54.8680 C.3     1  ZINC000646817380   -0.1200
     22 C22       -13.3119   -1.4702   54.5772 C.3     1  ZINC000646817380   -0.0700
     23 C23       -12.3489   -0.9505   55.6466 C.3     1  ZINC000646817380   -0.1600
     24 C24       -14.5759   -0.6086   54.5460 C.3     1  ZINC000646817380   -0.1400
     25 C25       -10.3118   -1.4248   52.1594 C.3     1  ZINC000646817380    0.0900
     26 N26        -5.0581    2.5407   51.2725 N.2     1  ZINC000646817380   -0.3800
     27 O27        -4.1033    3.2391   51.0219 O.3     1  ZINC000646817380    0.1100
     28 H28         0.1077    3.0408   49.9029 H       1  ZINC000646817380    0.0700
     29 H29        -0.8872    2.8523   51.3667 H       1  ZINC000646817380    0.0600
     30 H30        -0.8210    1.5444   50.1613 H       1  ZINC000646817380    0.0600
     31 H31        -2.0074    4.3207   49.7120 H       1  ZINC000646817380    0.1100
     32 H32        -1.9168    1.8402   47.9355 H       1  ZINC000646817380    0.0600
     33 H33        -2.7636    3.3590   47.5552 H       1  ZINC000646817380    0.0600
     34 H34        -0.9880    3.3366   47.6771 H       1  ZINC000646817380    0.0700
     35 H35        -3.4641    0.7224   49.1288 H       1  ZINC000646817380    0.1900
     36 H36        -5.8292   -0.4039   50.0959 H       1  ZINC000646817380    0.4300
     37 H37        -9.0765    1.1564   53.4349 H       1  ZINC000646817380    0.0800
     38 H38        -9.7181    1.6156   51.8329 H       1  ZINC000646817380    0.0800
     39 H39       -11.3221    1.1376   54.0556 H       1  ZINC000646817380    0.0900
     40 H40       -11.8832    0.9182   52.3655 H       1  ZINC000646817380    0.0800
     41 H41       -12.7835   -2.9528   51.6256 H       1  ZINC000646817380    0.0700
     42 H42       -11.6555   -3.3879   52.9479 H       1  ZINC000646817380    0.0800
     43 H43       -14.7237   -3.3736   52.9945 H       1  ZINC000646817380    0.0700
     44 H44       -13.6072   -4.6715   53.5328 H       1  ZINC000646817380    0.0700
     45 H45       -14.6445   -2.9984   55.3752 H       1  ZINC000646817380    0.0700
     46 H46       -12.9051   -3.4185   55.4657 H       1  ZINC000646817380    0.0700
     47 H47       -11.6448   -1.7382   55.9151 H       1  ZINC000646817380    0.0700
     48 H48       -11.8022   -0.0919   55.2567 H       1  ZINC000646817380    0.0600
     49 H49       -12.9136   -0.6513   56.5295 H       1  ZINC000646817380    0.0500
     50 H50       -15.0658   -0.6468   55.5189 H       1  ZINC000646817380    0.0600
     51 H51       -14.3073    0.4221   54.3147 H       1  ZINC000646817380    0.0500
     52 H52       -15.2549   -0.9873   53.7822 H       1  ZINC000646817380    0.0600
     53 H53       -10.8908   -1.4692   51.2370 H       1  ZINC000646817380    0.0900
     54 H54        -9.8930   -2.4037   52.3929 H       1  ZINC000646817380    0.1000
@<TRIPOS>BOND
     1     1     2    1
     2     1    28    1
     3     1    29    1
     4     1    30    1
     5     2     3    1
     6     2     4    1
     7     2    31    1
     8     3    32    1
     9     3    33    1
    10     3    34    1
    11     4    27    1
    12     4     5    2
    13     5     6    1
    14     5    35    1
    15     6     7    1
    16     6    26    2
    17     7     8   am
    18     7    36    1
    19     8     9    2
    20     8    10    1
    21    10    11    2
    22    10    12   am
    23    12    25    1
    24    12    13    1
    25    13    14    1
    26    13    37    1
    27    13    38    1
    28    14    15    1
    29    14    39    1
    30    14    40    1
    31    15    16    1
    32    15    17    1
    33    15    25    1
    34    17    18    1
    35    17    22    1
    36    17    19    1
    37    19    20    1
    38    19    41    1
    39    19    42    1
    40    20    21    1
    41    20    43    1
    42    20    44    1
    43    21    22    1
    44    21    45    1
    45    21    46    1
    46    22    23    1
    47    22    24    1
    48    23    47    1
    49    23    48    1
    50    23    49    1
    51    24    50    1
    52    24    51    1
    53    24    52    1
    54    25    53    1
    55    25    54    1
    56    26    27    1
@<TRIPOS>SUBSTRUCTURE
     1 ZINC000646817380        1 TEMP              0 ****  ****    0 ROOT


##########                                Name:    ZINC000186316242
##########                DOCK_Rotatable_Bonds:                   7
##########                         Heavy_Atoms:                  28
##########                    Molecular_Weight:             392.525
##########                DOCK_Rotatable_Bonds:                   7
##########                       Formal_Charge:         -0.00999981
##########                     HBond_Acceptors:                   6
##########                        HBond_Donors:                   0
##########                         Heavy_Atoms:                  28
##########                          Grid_Score:          -32.908249
##########                     Grid_vdw_energy:          -33.087910
##########                      Grid_es_energy:            0.179661
##########           Internal_energy_repulsive:           19.787128

@<TRIPOS>MOLECULE
ZINC000186316242
 52 55 1 0 0
SMALL
USER_CHARGES


@<TRIPOS>ATOM
      1 C1        -13.8089    0.4133   57.4882 C.3     1  ZINC000186316242   -0.1500
      2 C2        -13.8772   -1.0474   57.0379 C.3     1  ZINC000186316242    0.1000
      3 N3        -12.7888   -1.3195   56.0959 N.am    1  ZINC000186316242   -0.5900
      4 C4        -12.8224   -0.7910   54.8565 C.2     1  ZINC000186316242    0.5900
      5 O5        -13.7562   -0.0881   54.5202 O.2     1  ZINC000186316242   -0.5000
      6 C6        -11.7278   -1.0648   53.9089 C.2     1  ZINC000186316242    0.0100
      7 C7        -11.6164   -2.2464   53.2386 C.2     1  ZINC000186316242   -0.2100
      8 S8        -10.2300   -2.1904   52.2389 S.3     1  ZINC000186316242    0.2000
      9 C9         -9.8757   -0.5569   52.7889 C.2     1  ZINC000186316242    0.0700
     10 C10        -8.7269    0.2625   52.3452 C.ar    1  ZINC000186316242    0.1900
     11 C11        -7.8753   -0.2204   51.3521 C.ar    1  ZINC000186316242   -0.1500
     12 C12        -6.8049    0.5584   50.9472 C.ar    1  ZINC000186316242   -0.0700
     13 C13        -6.6206    1.7952   51.5485 C.ar    1  ZINC000186316242   -0.1600
     14 C14        -7.5042    2.2125   52.5279 C.ar    1  ZINC000186316242    0.1100
     15 N15        -8.5178    1.4548   52.8918 N.ar    1  ZINC000186316242   -0.4500
     16 N16       -10.7801   -0.1795   53.6395 N.2     1  ZINC000186316242   -0.3900
     17 C17       -11.6639   -2.1662   56.5009 C.3     1  ZINC000186316242    0.1400
     18 H18       -10.8278   -2.0375   55.8136 H       1  ZINC000186316242    0.1000
     19 C19       -12.0978   -3.6493   56.5461 C.3     1  ZINC000186316242   -0.1300
     20 C20       -11.3665   -4.1860   57.8022 C.3     1  ZINC000186316242    0.0400
     21 N21       -11.4429   -3.0472   58.7526 N.3     1  ZINC000186316242   -0.4900
     22 C22       -10.4189   -3.1653   59.7992 C.3     1  ZINC000186316242    0.0800
     23 C23       -10.7168   -2.1869   60.9060 C.ar    1  ZINC000186316242   -0.0700
     24 C24       -12.0215   -1.8087   61.1617 C.ar    1  ZINC000186316242   -0.1000
     25 C25       -12.2947   -0.9112   62.1770 C.ar    1  ZINC000186316242   -0.1200
     26 C26       -11.2631   -0.3924   62.9369 C.ar    1  ZINC000186316242   -0.1200
     27 C27        -9.9584   -0.7713   62.6819 C.ar    1  ZINC000186316242   -0.1200
     28 C28        -9.6856   -1.6720   61.6693 C.ar    1  ZINC000186316242   -0.1100
     29 C29       -11.2307   -1.8275   57.9393 C.3     1  ZINC000186316242    0.0400
     30 H30       -14.6187    0.6157   58.1892 H       1  ZINC000186316242    0.0700
     31 H31       -12.8517    0.5988   57.9754 H       1  ZINC000186316242    0.0500
     32 H32       -13.9076    1.0658   56.6208 H       1  ZINC000186316242    0.0400
     33 H33       -13.7784   -1.7000   57.9054 H       1  ZINC000186316242    0.1200
     34 H34       -14.8344   -1.2331   56.5507 H       1  ZINC000186316242    0.0700
     35 H35       -12.2941   -3.0828   53.3248 H       1  ZINC000186316242    0.1900
     36 H36        -8.0482   -1.1884   50.9056 H       1  ZINC000186316242    0.1400
     37 H37        -6.1282    0.2109   50.1807 H       1  ZINC000186316242    0.1400
     38 H38        -5.7947    2.4261   51.2549 H       1  ZINC000186316242    0.1400
     39 H39        -7.3628    3.1745   52.9979 H       1  ZINC000186316242    0.1600
     40 H40       -13.1783   -3.7317   56.6642 H       1  ZINC000186316242    0.0900
     41 H41       -11.7652   -4.1760   55.6516 H       1  ZINC000186316242    0.0700
     42 H42       -11.8823   -5.0580   58.2044 H       1  ZINC000186316242    0.0800
     43 H43       -10.3286   -4.4248   57.5704 H       1  ZINC000186316242    0.0400
     44 H44       -10.4236   -4.1792   60.1993 H       1  ZINC000186316242    0.0400
     45 H45        -9.4388   -2.9467   59.3751 H       1  ZINC000186316242    0.0800
     46 H46       -12.8275   -2.2141   60.5680 H       1  ZINC000186316242    0.1200
     47 H47       -13.3140   -0.6153   62.3763 H       1  ZINC000186316242    0.1200
     48 H48       -11.4764    0.3093   63.7298 H       1  ZINC000186316242    0.1200
     49 H49        -9.1524   -0.3657   63.2754 H       1  ZINC000186316242    0.1200
     50 H50        -8.6663   -1.9681   61.4701 H       1  ZINC000186316242    0.1200
     51 H51       -10.1771   -1.5486   57.9561 H       1  ZINC000186316242    0.0500
     52 H52       -11.8398   -1.0114   58.3279 H       1  ZINC000186316242    0.0800
@<TRIPOS>BOND
     1     1     2    1
     2     1    30    1
     3     1    31    1
     4     1    32    1
     5     2     3    1
     6     2    33    1
     7     2    34    1
     8     3     4   am
     9     3    17    1
    10     4     5    2
    11     4     6    1
    12     6    16    1
    13     6     7    2
    14     7     8    1
    15     7    35    1
    16     8     9    1
    17     9    10    1
    18     9    16    2
    19    10    15   ar
    20    10    11   ar
    21    11    12   ar
    22    11    36    1
    23    12    13   ar
    24    12    37    1
    25    13    14   ar
    26    13    38    1
    27    14    15   ar
    28    14    39    1
    29    17    18    1
    30    17    29    1
    31    17    19    1
    32    19    20    1
    33    19    40    1
    34    19    41    1
    35    20    21    1
    36    20    42    1
    37    20    43    1
    38    21    22    1
    39    21    29    1
    40    22    23    1
    41    22    44    1
    42    22    45    1
    43    23    28   ar
    44    23    24   ar
    45    24    25   ar
    46    24    46    1
    47    25    26   ar
    48    25    47    1
    49    26    27   ar
    50    26    48    1
    51    27    28   ar
    52    27    49    1
    53    28    50    1
    54    29    51    1
    55    29    52    1
@<TRIPOS>SUBSTRUCTURE
     1 ZINC000186316242        1 TEMP              0 ****  ****    0 ROOT


##########                                Name:    ZINC000790735374
##########                DOCK_Rotatable_Bonds:                   5
##########                         Heavy_Atoms:                  25
##########                    Molecular_Weight:             353.445
##########                DOCK_Rotatable_Bonds:                   5
##########                       Formal_Charge:                   0
##########                     HBond_Acceptors:                   6
##########                        HBond_Donors:                   1
##########                         Heavy_Atoms:                  25
##########                          Grid_Score:          -32.892090
##########                     Grid_vdw_energy:          -33.404236
##########                      Grid_es_energy:            0.512145
##########           Internal_energy_repulsive:            8.934337

@<TRIPOS>MOLECULE
ZINC000790735374
 44 47 1 0 0
SMALL
USER_CHARGES


@<TRIPOS>ATOM
      1 O1         -8.5663    0.5484   54.6807 O.2     1  ZINC000790735374   -0.5100
      2 C2         -9.6273    0.3227   54.1382 C.2     1  ZINC000790735374    0.5000
      3 N3        -10.6580   -0.1706   54.8527 N.am    1  ZINC000790735374   -0.7200
      4 C4        -10.4951   -0.4400   56.2835 C.3     1  ZINC000790735374    0.1400
      5 C5        -11.4358   -1.5725   56.6997 C.3     1  ZINC000790735374   -0.0300
      6 H6        -12.3922   -1.1511   57.0095 H       1  ZINC000790735374    0.1100
      7 S7        -11.6981   -2.6826   55.2902 S.3     1  ZINC000790735374   -0.2400
      8 C8        -12.4574   -4.1151   56.1185 C.3     1  ZINC000790735374   -0.0800
      9 C9        -11.4272   -4.6971   57.0751 C.3     1  ZINC000790735374   -0.0800
     10 C10       -10.8486   -3.6853   58.0229 C.ar    1  ZINC000790735374   -0.0700
     11 C11       -10.2801   -4.2319   59.1783 C.ar    1  ZINC000790735374   -0.1200
     12 C12        -9.6947   -3.4380   60.1363 C.ar    1  ZINC000790735374   -0.1100
     13 C13        -9.6620   -2.0674   59.9578 C.ar    1  ZINC000790735374   -0.1200
     14 C14       -10.2247   -1.5227   58.8262 C.ar    1  ZINC000790735374   -0.1100
     15 C15       -10.8263   -2.3286   57.8542 C.ar    1  ZINC000790735374   -0.0800
     16 C16        -9.7950    0.5998   52.6664 C.3     1  ZINC000790735374    0.0300
     17 H17       -10.8264    0.8675   52.4369 H       1  ZINC000790735374    0.1500
     18 C18        -8.8184    1.7039   52.1958 C.3     1  ZINC000790735374   -0.1400
     19 C19        -7.6325    0.9028   51.6930 C.2     1  ZINC000790735374    0.1200
     20 C20        -6.2819    1.4340   51.4219 C.ar    1  ZINC000790735374   -0.1000
     21 C21        -5.9296    2.7257   51.8313 C.ar    1  ZINC000790735374   -0.0400
     22 C22        -4.6508    3.1758   51.5533 C.ar    1  ZINC000790735374   -0.1700
     23 C23        -3.7702    2.3437   50.8863 C.ar    1  ZINC000790735374    0.1200
     24 N24        -4.1296    1.1306   50.5122 N.ar    1  ZINC000790735374   -0.4800
     25 C25        -5.3325    0.6548   50.7581 C.ar    1  ZINC000790735374    0.1400
     26 N26        -8.0071   -0.3233   51.5427 N.2     1  ZINC000790735374   -0.2700
     27 O27        -9.3666   -0.5282   51.8767 O.3     1  ZINC000790735374   -0.1600
     28 H28       -11.5078   -0.3474   54.4197 H       1  ZINC000790735374    0.4100
     29 H29        -9.4641   -0.7321   56.4831 H       1  ZINC000790735374    0.0800
     30 H30       -10.7345    0.4587   56.8520 H       1  ZINC000790735374    0.0900
     31 H31       -13.3389   -3.7959   56.6746 H       1  ZINC000790735374    0.0900
     32 H32       -12.7382   -4.8640   55.3779 H       1  ZINC000790735374    0.1100
     33 H33       -11.8991   -5.4894   57.6561 H       1  ZINC000790735374    0.0900
     34 H34       -10.6160   -5.1322   56.4915 H       1  ZINC000790735374    0.0900
     35 H35       -10.3016   -5.3022   59.3214 H       1  ZINC000790735374    0.1200
     36 H36        -9.2642   -3.8817   61.0218 H       1  ZINC000790735374    0.1300
     37 H37        -9.2001   -1.4313   60.6984 H       1  ZINC000790735374    0.1300
     38 H38       -10.1989   -0.4523   58.6853 H       1  ZINC000790735374    0.1300
     39 H39        -9.2580    2.2917   51.3899 H       1  ZINC000790735374    0.1200
     40 H40        -8.5276    2.3441   53.0288 H       1  ZINC000790735374    0.1100
     41 H41        -6.6376    3.3547   52.3504 H       1  ZINC000790735374    0.1500
     42 H42        -4.3439    4.1668   51.8536 H       1  ZINC000790735374    0.1500
     43 H43        -2.7718    2.6928   50.6678 H       1  ZINC000790735374    0.1600
     44 H44        -5.5896   -0.3436   50.4364 H       1  ZINC000790735374    0.1600
@<TRIPOS>BOND
     1     1     2    2
     2     2     3   am
     3     2    16    1
     4     3     4    1
     5     3    28    1
     6     4     5    1
     7     4    29    1
     8     4    30    1
     9     5     6    1
    10     5    15    1
    11     5     7    1
    12     7     8    1
    13     8     9    1
    14     8    31    1
    15     8    32    1
    16     9    10    1
    17     9    33    1
    18     9    34    1
    19    10    15   ar
    20    10    11   ar
    21    11    12   ar
    22    11    35    1
    23    12    13   ar
    24    12    36    1
    25    13    14   ar
    26    13    37    1
    27    14    15   ar
    28    14    38    1
    29    16    17    1
    30    16    27    1
    31    16    18    1
    32    18    19    1
    33    18    39    1
    34    18    40    1
    35    19    20    1
    36    19    26    2
    37    20    25   ar
    38    20    21   ar
    39    21    22   ar
    40    21    41    1
    41    22    23   ar
    42    22    42    1
    43    23    24   ar
    44    23    43    1
    45    24    25   ar
    46    25    44    1
    47    26    27    1
@<TRIPOS>SUBSTRUCTURE
     1 ZINC000790735374        1 TEMP              0 ****  ****    0 ROOT


##########                                Name:    ZINC000542980334
##########                DOCK_Rotatable_Bonds:                   6
##########                         Heavy_Atoms:                  27
##########                    Molecular_Weight:             404.795
##########                DOCK_Rotatable_Bonds:                   6
##########                       Formal_Charge:           0.0300001
##########                     HBond_Acceptors:                  10
##########                        HBond_Donors:                   1
##########                         Heavy_Atoms:                  27
##########                          Grid_Score:          -32.890472
##########                     Grid_vdw_energy:          -32.147476
##########                      Grid_es_energy:           -0.742994
##########           Internal_energy_repulsive:           11.406813

@<TRIPOS>MOLECULE
ZINC000542980334
 44 46 1 0 0
SMALL
USER_CHARGES


@<TRIPOS>ATOM
      1 O1        -14.3343   -3.5219   55.9364 O.2     1  ZINC000542980334   -0.5800
      2 C2        -13.3826   -2.7699   55.8514 C.2     1  ZINC000542980334    0.7100
      3 N3        -12.6115   -2.5340   56.9312 N.am    1  ZINC000542980334   -0.7400
      4 C4        -12.9234   -3.1789   58.2091 C.3     1  ZINC000542980334    0.1800
      5 C5        -11.7697   -2.9928   59.1606 C.ar    1  ZINC000542980334   -0.1400
      6 C6        -11.7794   -1.9441   60.0639 C.ar    1  ZINC000542980334    0.1300
      7 F7        -12.8232   -1.0867   60.0931 F       1  ZINC000542980334   -0.1200
      8 C8        -10.7188   -1.7744   60.9381 C.ar    1  ZINC000542980334   -0.1500
      9 C9         -9.6517   -2.6518   60.9084 C.ar    1  ZINC000542980334   -0.0700
     10 C10        -9.6420   -3.6992   60.0062 C.ar    1  ZINC000542980334   -0.1200
     11 C11       -10.7031   -3.8733   59.1356 C.ar    1  ZINC000542980334    0.0100
     12 Cl12      -10.6901   -5.1893   58.0035 Cl      1  ZINC000542980334   -0.0400
     13 N13       -13.0957   -2.1765   54.6757 N.am    1  ZINC000542980334   -0.6300
     14 C14       -13.9270   -2.4239   53.4898 C.3     1  ZINC000542980334    0.1100
     15 C15       -13.0233   -2.8831   52.3413 C.3     1  ZINC000542980334   -0.1300
     16 C16       -11.9136   -1.8512   52.1269 C.3     1  ZINC000542980334   -0.1300
     17 C17       -11.0645   -1.7417   53.3954 C.3     1  ZINC000542980334    0.1400
     18 H18       -10.6399   -2.7168   53.6344 H       1  ZINC000542980334    0.1100
     19 N19        -9.9831   -0.7775   53.1782 N.pl3   1  ZINC000542980334   -0.3400
     20 C20        -9.5682    0.1608   54.0549 C.2     1  ZINC000542980334    0.0600
     21 C21        -8.5532    0.8446   53.4775 C.2     1  ZINC000542980334   -0.2300
     22 C22        -8.3406    0.3057   52.2044 C.2     1  ZINC000542980334   -0.0200
     23 C23        -7.3040    0.7657   51.2120 C.3     1  ZINC000542980334    0.5600
     24 F24        -7.8420    1.7792   50.4117 F       1  ZINC000542980334   -0.1700
     25 F25        -6.1873    1.2561   51.8976 F       1  ZINC000542980334   -0.1700
     26 F26        -6.9202   -0.3111   50.4056 F       1  ZINC000542980334   -0.1600
     27 N27        -9.1932   -0.6706   52.0263 N.2     1  ZINC000542980334   -0.2300
     28 C28       -11.9493   -1.2652   54.5573 C.3     1  ZINC000542980334    0.1300
     29 H29       -11.8500   -1.9371   56.8623 H       1  ZINC000542980334    0.4000
     30 H30       -13.8208   -2.7289   58.6337 H       1  ZINC000542980334    0.0900
     31 H31       -13.0926   -4.2435   58.0471 H       1  ZINC000542980334    0.0900
     32 H32       -10.7256   -0.9562   61.6430 H       1  ZINC000542980334    0.1500
     33 H33        -8.8247   -2.5190   61.5901 H       1  ZINC000542980334    0.1500
     34 H34        -8.8073   -4.3842   59.9834 H       1  ZINC000542980334    0.1500
     35 H35       -14.6587   -3.2007   53.7121 H       1  ZINC000542980334    0.0800
     36 H36       -14.4409   -1.5055   53.2057 H       1  ZINC000542980334    0.0800
     37 H37       -12.5803   -3.8474   52.5902 H       1  ZINC000542980334    0.0800
     38 H38       -13.6133   -2.9776   51.4297 H       1  ZINC000542980334    0.0900
     39 H39       -11.2835   -2.1634   51.2939 H       1  ZINC000542980334    0.0800
     40 H40       -12.3578   -0.8815   51.9024 H       1  ZINC000542980334    0.0800
     41 H41        -9.9737    0.3350   55.0406 H       1  ZINC000542980334    0.1900
     42 H42        -8.0046    1.6624   53.9210 H       1  ZINC000542980334    0.1600
     43 H43       -12.2998   -0.2525   54.3582 H       1  ZINC000542980334    0.0800
     44 H44       -11.3752   -1.2799   55.4837 H       1  ZINC000542980334    0.1100
@<TRIPOS>BOND
     1     1     2    2
     2     2     3   am
     3     2    13   am
     4     3     4    1
     5     3    29    1
     6     4     5    1
     7     4    30    1
     8     4    31    1
     9     5    11   ar
    10     5     6   ar
    11     6     7    1
    12     6     8   ar
    13     8     9   ar
    14     8    32    1
    15     9    10   ar
    16     9    33    1
    17    10    11   ar
    18    10    34    1
    19    11    12    1
    20    13    28    1
    21    13    14    1
    22    14    15    1
    23    14    35    1
    24    14    36    1
    25    15    16    1
    26    15    37    1
    27    15    38    1
    28    16    17    1
    29    16    39    1
    30    16    40    1
    31    17    18    1
    32    17    19    1
    33    17    28    1
    34    19    27    1
    35    19    20    1
    36    20    21    2
    37    20    41    1
    38    21    22    1
    39    21    42    1
    40    22    23    1
    41    22    27    2
    42    23    24    1
    43    23    25    1
    44    23    26    1
    45    28    43    1
    46    28    44    1
@<TRIPOS>SUBSTRUCTURE
     1 ZINC000542980334        1 TEMP              0 ****  ****    0 ROOT


##########                                Name:    ZINC000464867530
##########                DOCK_Rotatable_Bonds:                   8
##########                         Heavy_Atoms:                  30
##########                    Molecular_Weight:              422.49
##########                DOCK_Rotatable_Bonds:                   8
##########                       Formal_Charge:         -0.00999994
##########                     HBond_Acceptors:                   7
##########                        HBond_Donors:                   0
##########                         Heavy_Atoms:                  30
##########                          Grid_Score:          -32.876534
##########                     Grid_vdw_energy:          -32.789326
##########                      Grid_es_energy:           -0.087206
##########           Internal_energy_repulsive:           31.787489

@<TRIPOS>MOLECULE
ZINC000464867530
 59 62 1 0 0
SMALL
USER_CHARGES


@<TRIPOS>ATOM
      1 C1        -12.5225    0.9360   58.8287 C.3     1  ZINC000464867530   -0.1500
      2 C2        -11.4844   -0.1820   58.7129 C.3     1  ZINC000464867530   -0.1400
      3 C3        -12.1045   -1.3809   57.9921 C.3     1  ZINC000464867530    0.0900
      4 N4        -11.2187   -2.5405   58.1226 N.am    1  ZINC000464867530   -0.6100
      5 C5         -9.9320   -2.4057   58.8098 C.3     1  ZINC000464867530    0.0700
      6 C6        -10.1034   -2.7619   60.2879 C.3     1  ZINC000464867530    0.4300
      7 F7         -9.5027   -3.9996   60.5420 F       1  ZINC000464867530   -0.1700
      8 F8         -9.4978   -1.7788   61.0778 F       1  ZINC000464867530   -0.1800
      9 F9        -11.4663   -2.8331   60.5954 F       1  ZINC000464867530   -0.1800
     10 C10       -11.5877   -3.7313   57.6105 C.2     1  ZINC000464867530    0.5300
     11 O11       -10.8545   -4.6914   57.7186 O.2     1  ZINC000464867530   -0.5100
     12 C12       -12.9114   -3.8700   56.9036 C.3     1  ZINC000464867530   -0.1200
     13 H13       -13.6463   -3.2183   57.3764 H       1  ZINC000464867530    0.1000
     14 C14       -13.3866   -5.3222   56.9892 C.3     1  ZINC000464867530   -0.1200
     15 C15       -14.7463   -5.4572   56.3001 C.3     1  ZINC000464867530   -0.1300
     16 C16       -14.6049   -5.0811   54.8218 C.3     1  ZINC000464867530    0.1000
     17 N17       -14.0123   -3.7398   54.7298 N.am    1  ZINC000464867530   -0.6100
     18 C18       -14.6161   -2.7699   54.0147 C.2     1  ZINC000464867530    0.5500
     19 O19       -15.6593   -2.9999   53.4407 O.2     1  ZINC000464867530   -0.5300
     20 C20       -13.9949   -1.3996   53.9285 C.3     1  ZINC000464867530   -0.1700
     21 H21       -13.7828   -0.9184   54.8834 H       1  ZINC000464867530    0.1300
     22 C22       -14.4203   -0.5021   52.7631 C.3     1  ZINC000464867530   -0.1300
     23 C23       -13.0322   -1.1341   52.7771 C.3     1  ZINC000464867530   -0.0600
     24 C24       -12.6531   -2.2461   51.7850 C.3     1  ZINC000464867530   -0.0900
     25 C25       -11.1286   -2.3709   52.0007 C.3     1  ZINC000464867530   -0.0800
     26 C26       -10.6873   -1.0164   52.5139 C.ar    1  ZINC000464867530   -0.0900
     27 C27        -9.4256   -0.4513   52.5831 C.ar    1  ZINC000464867530   -0.1100
     28 C28        -9.2591    0.8192   53.0994 C.ar    1  ZINC000464867530   -0.1100
     29 C29       -10.3560    1.5297   53.5491 C.ar    1  ZINC000464867530   -0.1200
     30 C30       -11.6162    0.9682   53.4809 C.ar    1  ZINC000464867530   -0.1000
     31 C31       -11.7863   -0.3048   52.9636 C.ar    1  ZINC000464867530   -0.0700
     32 C32       -12.7493   -3.4750   55.4324 C.3     1  ZINC000464867530    0.1300
     33 H33       -12.8441    1.2378   57.8319 H       1  ZINC000464867530    0.0600
     34 H34       -13.3819    0.5766   59.3946 H       1  ZINC000464867530    0.0600
     35 H35       -12.0808    1.7901   59.3421 H       1  ZINC000464867530    0.0600
     36 H36       -10.6250    0.1773   58.1469 H       1  ZINC000464867530    0.0700
     37 H37       -11.1627   -0.4839   59.7096 H       1  ZINC000464867530    0.0700
     38 H38       -13.0725   -1.6112   58.4369 H       1  ZINC000464867530    0.0900
     39 H39       -12.2370   -1.1418   56.9370 H       1  ZINC000464867530    0.0900
     40 H40        -9.2052   -3.0793   58.3557 H       1  ZINC000464867530    0.1300
     41 H41        -9.5791   -1.3781   58.7223 H       1  ZINC000464867530    0.1200
     42 H42       -12.6631   -5.9707   56.4950 H       1  ZINC000464867530    0.0800
     43 H43       -13.4792   -5.6129   58.0356 H       1  ZINC000464867530    0.0800
     44 H44       -15.0949   -6.4868   56.3817 H       1  ZINC000464867530    0.0900
     45 H45       -15.4642   -4.7906   56.7780 H       1  ZINC000464867530    0.0700
     46 H46       -13.9576   -5.8016   54.3218 H       1  ZINC000464867530    0.0700
     47 H47       -15.5871   -5.0798   54.3494 H       1  ZINC000464867530    0.0900
     48 H48       -15.1494   -0.9029   52.0590 H       1  ZINC000464867530    0.1100
     49 H49       -14.4873    0.5695   52.9512 H       1  ZINC000464867530    0.1100
     50 H50       -13.1582   -3.1789   52.0360 H       1  ZINC000464867530    0.0700
     51 H51       -12.8769   -1.9457   50.7613 H       1  ZINC000464867530    0.0800
     52 H52       -10.9132   -3.1433   52.7389 H       1  ZINC000464867530    0.0800
     53 H53       -10.6308   -2.5983   51.0580 H       1  ZINC000464867530    0.0800
     54 H54        -8.5679   -1.0060   52.2324 H       1  ZINC000464867530    0.1200
     55 H55        -8.2730    1.2565   53.1520 H       1  ZINC000464867530    0.1300
     56 H56       -10.2279    2.5228   53.9536 H       1  ZINC000464867530    0.1300
     57 H57       -12.4724    1.5244   53.8331 H       1  ZINC000464867530    0.1200
     58 H58       -12.5076   -2.4145   55.3624 H       1  ZINC000464867530    0.1000
     59 H59       -11.9503   -4.0644   54.9825 H       1  ZINC000464867530    0.0800
@<TRIPOS>BOND
     1     1     2    1
     2     1    33    1
     3     1    34    1
     4     1    35    1
     5     2     3    1
     6     2    36    1
     7     2    37    1
     8     3     4    1
     9     3    38    1
    10     3    39    1
    11     4     5    1
    12     4    10   am
    13     5     6    1
    14     5    40    1
    15     5    41    1
    16     6     7    1
    17     6     8    1
    18     6     9    1
    19    10    11    2
    20    10    12    1
    21    12    13    1
    22    12    32    1
    23    12    14    1
    24    14    15    1
    25    14    42    1
    26    14    43    1
    27    15    16    1
    28    15    44    1
    29    15    45    1
    30    16    17    1
    31    16    46    1
    32    16    47    1
    33    17    18   am
    34    17    32    1
    35    18    19    2
    36    18    20    1
    37    20    21    1
    38    20    23    1
    39    20    22    1
    40    22    23    1
    41    22    48    1
    42    22    49    1
    43    23    31    1
    44    23    24    1
    45    24    25    1
    46    24    50    1
    47    24    51    1
    48    25    26    1
    49    25    52    1
    50    25    53    1
    51    26    31   ar
    52    26    27   ar
    53    27    28   ar
    54    27    54    1
    55    28    29   ar
    56    28    55    1
    57    29    30   ar
    58    29    56    1
    59    30    31   ar
    60    30    57    1
    61    32    58    1
    62    32    59    1
@<TRIPOS>SUBSTRUCTURE
     1 ZINC000464867530        1 TEMP              0 ****  ****    0 ROOT


##########                                Name:    ZINC000469459940
##########                DOCK_Rotatable_Bonds:                   7
##########                         Heavy_Atoms:                  24
##########                    Molecular_Weight:             414.295
##########                DOCK_Rotatable_Bonds:                   7
##########                       Formal_Charge:          -0.0200002
##########                     HBond_Acceptors:                   6
##########                        HBond_Donors:                   1
##########                         Heavy_Atoms:                  24
##########                          Grid_Score:          -32.858677
##########                     Grid_vdw_energy:          -31.089128
##########                      Grid_es_energy:           -1.769550
##########           Internal_energy_repulsive:            9.155894

@<TRIPOS>MOLECULE
ZINC000469459940
 41 42 1 0 0
SMALL
USER_CHARGES


@<TRIPOS>ATOM
      1 C1         -4.6686    2.9158   65.3901 C.3     1  ZINC000469459940   -0.1600
      2 C2         -4.7565    1.7786   66.4099 C.3     1  ZINC000469459940   -0.1200
      3 C3         -6.1648    1.1810   66.3873 C.3     1  ZINC000469459940   -0.1200
      4 C4         -7.1671    2.2181   66.8981 C.3     1  ZINC000469459940   -0.6000
      5 S5         -8.7443    1.4028   67.2698 S.o2    1  ZINC000469459940    2.4900
      6 O6         -8.5347    0.2621   68.0908 O.2     1  ZINC000469459940   -0.9300
      7 O7         -9.7391    2.3648   67.5926 O.2     1  ZINC000469459940   -0.9300
      8 C8         -9.2694    0.7361   65.7256 C.ar    1  ZINC000469459940   -0.6400
      9 C9         -8.7394   -0.4603   65.2761 C.ar    1  ZINC000469459940   -0.0300
     10 C10        -9.1459   -0.9876   64.0678 C.ar    1  ZINC000469459940   -0.0800
     11 C11       -10.0943   -0.3114   63.2985 C.ar    1  ZINC000469459940   -0.0900
     12 C12       -10.5349   -0.8707   62.0031 C.2     1  ZINC000469459940    0.5600
     13 O13       -11.7102   -0.8357   61.6942 O.2     1  ZINC000469459940   -0.5000
     14 N14        -9.6338   -1.4196   61.1646 N.am    1  ZINC000469459940   -0.6700
     15 C15       -10.0508   -1.9488   59.9388 C.ar    1  ZINC000469459940    0.1900
     16 C16       -10.5159   -1.1045   58.9391 C.ar    1  ZINC000469459940   -0.1500
     17 C17       -10.9275   -1.6285   57.7290 C.ar    1  ZINC000469459940   -0.0400
     18 C18       -10.8773   -2.9934   57.5115 C.ar    1  ZINC000469459940   -0.1500
     19 Br19      -11.4417   -3.7066   55.8535 Br      1  ZINC000469459940   -0.0200
     20 C20       -10.4138   -3.8394   58.5068 C.ar    1  ZINC000469459940    0.1500
     21 F21       -10.3658   -5.1723   58.2921 F       1  ZINC000469459940   -0.1200
     22 C22        -9.9950   -3.3187   59.7177 C.ar    1  ZINC000469459940   -0.1500
     23 C23       -10.6253    0.8950   63.7581 C.ar    1  ZINC000469459940   -0.1100
     24 C24       -10.2140    1.4086   64.9707 C.ar    1  ZINC000469459940   -0.0300
     25 H25        -4.8830    2.5281   64.3941 H       1  ZINC000469459940    0.0600
     26 H26        -5.3951    3.6879   65.6435 H       1  ZINC000469459940    0.0600
     27 H27        -3.6654    3.3415   65.4061 H       1  ZINC000469459940    0.0600
     28 H28        -4.0301    1.0064   66.1565 H       1  ZINC000469459940    0.0700
     29 H29        -4.5423    2.1663   67.4058 H       1  ZINC000469459940    0.0700
     30 H30        -6.4232    0.8979   65.3669 H       1  ZINC000469459940    0.0800
     31 H31        -6.1958    0.2996   67.0278 H       1  ZINC000469459940    0.0800
     32 H32        -6.7775    2.6852   67.8025 H       1  ZINC000469459940    0.1400
     33 H33        -7.3231    2.9797   66.1340 H       1  ZINC000469459940    0.1400
     34 H34        -8.0057   -0.9825   65.8723 H       1  ZINC000469459940    0.1500
     35 H35        -8.7310   -1.9212   63.7177 H       1  ZINC000469459940    0.1500
     36 H36        -8.6961   -1.4476   61.4112 H       1  ZINC000469459940    0.4200
     37 H37       -10.5562   -0.0386   59.1077 H       1  ZINC000469459940    0.1500
     38 H38       -11.2890   -0.9716   56.9518 H       1  ZINC000469459940    0.1500
     39 H39        -9.6335   -3.9774   60.4935 H       1  ZINC000469459940    0.1600
     40 H40       -11.3591    1.4232   63.1676 H       1  ZINC000469459940    0.1400
     41 H41       -10.6239    2.3419   65.3274 H       1  ZINC000469459940    0.1500
@<TRIPOS>BOND
     1     1     2    1
     2     1    25    1
     3     1    26    1
     4     1    27    1
     5     2     3    1
     6     2    28    1
     7     2    29    1
     8     3     4    1
     9     3    30    1
    10     3    31    1
    11     4     5    1
    12     4    32    1
    13     4    33    1
    14     5     6    2
    15     5     7    2
    16     5     8    1
    17     8    24   ar
    18     8     9   ar
    19     9    10   ar
    20     9    34    1
    21    10    11   ar
    22    10    35    1
    23    11    12    1
    24    11    23   ar
    25    12    13    2
    26    12    14   am
    27    14    15    1
    28    14    36    1
    29    15    22   ar
    30    15    16   ar
    31    16    17   ar
    32    16    37    1
    33    17    18   ar
    34    17    38    1
    35    18    19    1
    36    18    20   ar
    37    20    21    1
    38    20    22   ar
    39    22    39    1
    40    23    24   ar
    41    23    40    1
    42    24    41    1
@<TRIPOS>SUBSTRUCTURE
     1 ZINC000469459940        1 TEMP              0 ****  ****    0 ROOT


##########                                Name:    ZINC000573650873
##########                DOCK_Rotatable_Bonds:                  10
##########                         Heavy_Atoms:                  28
##########                    Molecular_Weight:             418.843
##########                DOCK_Rotatable_Bonds:                  10
##########                       Formal_Charge:          -0.0500001
##########                     HBond_Acceptors:                   9
##########                        HBond_Donors:                   1
##########                         Heavy_Atoms:                  28
##########                          Grid_Score:          -32.833839
##########                     Grid_vdw_energy:          -32.202103
##########                      Grid_es_energy:           -0.631738
##########           Internal_energy_repulsive:           13.768985

@<TRIPOS>MOLECULE
ZINC000573650873
 50 51 1 0 0
SMALL
USER_CHARGES


@<TRIPOS>ATOM
      1 C1        -14.4417   -3.8472   53.6102 C.3     1  ZINC000573650873   -0.1400
      2 C2        -14.4236   -4.2828   55.0768 C.3     1  ZINC000573650873    0.0100
      3 C3        -15.4967   -3.5143   55.8504 C.3     1  ZINC000573650873   -0.1400
      4 C4        -14.7067   -5.7837   55.1665 C.3     1  ZINC000573650873   -0.1500
      5 C5        -13.0698   -3.9906   55.6709 C.2     1  ZINC000573650873   -0.0100
      6 C6        -12.7988   -3.7161   56.9679 C.2     1  ZINC000573650873   -0.1800
      7 C7        -11.3897   -3.5213   56.9895 C.2     1  ZINC000573650873   -0.0300
      8 C8        -10.5532   -3.1925   58.1694 C.2     1  ZINC000573650873    0.6000
      9 O9         -9.8741   -4.0539   58.6917 O.2     1  ZINC000573650873   -0.5100
     10 N10       -10.5465   -1.9380   58.6621 N.am    1  ZINC000573650873   -0.5900
     11 C11        -9.7203   -1.6132   59.8276 C.3     1  ZINC000573650873    0.1200
     12 C12       -10.3414   -2.2321   61.0814 C.3     1  ZINC000573650873   -0.1000
     13 C13       -10.3666   -1.2085   62.1871 C.ar    1  ZINC000573650873   -0.0800
     14 C14       -11.5209   -0.4900   62.4372 C.ar    1  ZINC000573650873   -0.1000
     15 C15       -11.5448    0.4490   63.4512 C.ar    1  ZINC000573650873   -0.1100
     16 C16       -10.4132    0.6697   64.2159 C.ar    1  ZINC000573650873   -0.0400
     17 Cl17      -10.4425    1.8484   65.4901 Cl      1  ZINC000573650873   -0.0700
     18 C18        -9.2583   -0.0497   63.9652 C.ar    1  ZINC000573650873   -0.1100
     19 C19        -9.2375   -0.9924   62.9545 C.ar    1  ZINC000573650873   -0.1000
     20 C20       -11.3655   -0.8993   58.0325 C.3     1  ZINC000573650873    0.0700
     21 C21       -10.6729   -0.4047   56.7609 C.3     1  ZINC000573650873    0.0600
     22 H22        -9.9458   -1.1467   56.4312 H       1  ZINC000573650873    0.1400
     23 O23       -11.6474   -0.2041   55.7351 O.3     1  ZINC000573650873   -0.5200
     24 C24        -9.9579    0.9165   57.0506 C.3     1  ZINC000573650873    0.4300
     25 F25       -10.8708    1.8344   57.5810 F       1  ZINC000573650873   -0.1700
     26 F26        -8.9283    0.6973   57.9720 F       1  ZINC000573650873   -0.1700
     27 F27        -9.4206    1.4261   55.8636 F       1  ZINC000573650873   -0.1800
     28 N28       -10.9800   -3.6917   55.7570 N.2     1  ZINC000573650873   -0.3400
     29 O29       -11.8996   -3.9577   55.0184 O.3     1  ZINC000573650873    0.1300
     30 H30       -14.2400   -2.7779   53.5462 H       1  ZINC000573650873    0.0600
     31 H31       -13.6772   -4.3948   53.0591 H       1  ZINC000573650873    0.0600
     32 H32       -15.4208   -4.0587   53.1805 H       1  ZINC000573650873    0.0700
     33 H33       -16.4758   -3.7256   55.4206 H       1  ZINC000573650873    0.0700
     34 H34       -15.4838   -3.8246   56.8951 H       1  ZINC000573650873    0.0600
     35 H35       -15.2950   -2.4450   55.7865 H       1  ZINC000573650873    0.0600
     36 H36       -13.9421   -6.3313   54.6154 H       1  ZINC000573650873    0.0600
     37 H37       -14.6937   -6.0941   56.2113 H       1  ZINC000573650873    0.0600
     38 H38       -15.6858   -5.9951   54.7367 H       1  ZINC000573650873    0.0700
     39 H39       -13.4914   -3.6580   57.7946 H       1  ZINC000573650873    0.1800
     40 H40        -8.7165   -2.0131   59.6841 H       1  ZINC000573650873    0.0900
     41 H41        -9.6670   -0.5308   59.9448 H       1  ZINC000573650873    0.1000
     42 H42       -11.3592   -2.5545   60.8614 H       1  ZINC000573650873    0.0800
     43 H43        -9.7480   -3.0910   61.3948 H       1  ZINC000573650873    0.0800
     44 H44       -12.4042   -0.6621   61.8399 H       1  ZINC000573650873    0.1300
     45 H45       -12.4464    1.0105   63.6462 H       1  ZINC000573650873    0.1300
     46 H46        -8.3745    0.1224   64.5616 H       1  ZINC000573650873    0.1300
     47 H47        -8.3360   -1.5542   62.7589 H       1  ZINC000573650873    0.1300
     48 H48       -12.3419   -1.3111   57.7777 H       1  ZINC000573650873    0.1000
     49 H49       -11.4917   -0.0667   58.7247 H       1  ZINC000573650873    0.1200
     50 H50       -12.3552    0.4080   55.9792 H       1  ZINC000573650873    0.3900
@<TRIPOS>BOND
     1     1     2    1
     2     1    30    1
     3     1    31    1
     4     1    32    1
     5     2     3    1
     6     2     4    1
     7     2     5    1
     8     3    33    1
     9     3    34    1
    10     3    35    1
    11     4    36    1
    12     4    37    1
    13     4    38    1
    14     5    29    1
    15     5     6    2
    16     6     7    1
    17     6    39    1
    18     7     8    1
    19     7    28    2
    20     8     9    2
    21     8    10   am
    22    10    11    1
    23    10    20    1
    24    11    12    1
    25    11    40    1
    26    11    41    1
    27    12    13    1
    28    12    42    1
    29    12    43    1
    30    13    19   ar
    31    13    14   ar
    32    14    15   ar
    33    14    44    1
    34    15    16   ar
    35    15    45    1
    36    16    17    1
    37    16    18   ar
    38    18    19   ar
    39    18    46    1
    40    19    47    1
    41    20    21    1
    42    20    48    1
    43    20    49    1
    44    21    22    1
    45    21    23    1
    46    21    24    1
    47    23    50    1
    48    24    25    1
    49    24    26    1
    50    24    27    1
    51    28    29    1
@<TRIPOS>SUBSTRUCTURE
     1 ZINC000573650873        1 TEMP              0 ****  ****    0 ROOT


##########                                Name:    ZINC000629379364
##########                DOCK_Rotatable_Bonds:                   5
##########                         Heavy_Atoms:                  23
##########                    Molecular_Weight:             386.261
##########                DOCK_Rotatable_Bonds:                   5
##########                       Formal_Charge:               -0.02
##########                     HBond_Acceptors:                   5
##########                        HBond_Donors:                   1
##########                         Heavy_Atoms:                  23
##########                          Grid_Score:          -32.828007
##########                     Grid_vdw_energy:          -30.219610
##########                      Grid_es_energy:           -2.608397
##########           Internal_energy_repulsive:           20.255619

@<TRIPOS>MOLECULE
ZINC000629379364
 44 46 1 0 0
SMALL
USER_CHARGES


@<TRIPOS>ATOM
      1 O1        -13.0067   -3.6568   58.3081 O.co2   1  ZINC000629379364   -0.6800
      2 C2        -11.8963   -4.0435   57.9859 C.2     1  ZINC000629379364    0.5000
      3 O3        -11.7726   -5.0633   57.3292 O.co2   1  ZINC000629379364   -0.6900
      4 C4        -10.6769   -3.2575   58.3937 C.3     1  ZINC000629379364   -0.1600
      5 H5         -9.8132   -3.5831   57.8139 H       1  ZINC000629379364    0.0800
      6 C6        -10.4049   -3.4507   59.8959 C.3     1  ZINC000629379364   -0.1300
      7 C7         -9.2640   -2.5554   60.3697 C.3     1  ZINC000629379364   -0.0100
      8 N8         -9.5066   -1.1376   60.0404 N.4     1  ZINC000629379364   -0.3700
      9 H9         -8.7355   -0.5735   60.3649 H       1  ZINC000629379364    0.4200
     10 C10       -10.7547   -0.6855   60.6695 C.3     1  ZINC000629379364   -0.0200
     11 C11       -10.4276    0.2099   61.8660 C.3     1  ZINC000629379364    0.0300
     12 O12        -9.7355   -0.5528   62.8567 O.3     1  ZINC000629379364   -0.3200
     13 C13        -9.5777    0.0213   64.0783 C.ar    1  ZINC000629379364    0.1600
     14 C14        -9.1191   -0.7347   65.1466 C.ar    1  ZINC000629379364   -0.2300
     15 C15        -8.9590   -0.1481   66.3897 C.ar    1  ZINC000629379364    0.1500
     16 F16        -8.5123   -0.8836   67.4312 F       1  ZINC000629379364   -0.1200
     17 C17        -9.2564    1.1926   66.5663 C.ar    1  ZINC000629379364   -0.1600
     18 C18        -9.7143    1.9473   65.5011 C.ar    1  ZINC000629379364   -0.0300
     19 Br19      -10.1194    3.7782   65.7457 Br      1  ZINC000629379364   -0.0100
     20 C20        -9.8698    1.3659   64.2568 C.ar    1  ZINC000629379364   -0.1300
     21 C21        -9.6166   -1.0387   58.5939 C.3     1  ZINC000629379364   -0.0100
     22 H22        -8.7545   -1.5091   58.1212 H       1  ZINC000629379364    0.1400
     23 C23        -9.8261    0.3675   58.0228 C.3     1  ZINC000629379364   -0.1300
     24 C24       -10.4657    0.0891   56.6354 C.3     1  ZINC000629379364   -0.1200
     25 C25       -11.1315   -1.3056   56.7334 C.3     1  ZINC000629379364   -0.1100
     26 C26       -10.9188   -1.7738   58.1756 C.3     1  ZINC000629379364   -0.0700
     27 H27       -11.7355   -1.4208   58.8052 H       1  ZINC000629379364    0.1000
     28 H28       -11.3072   -3.2065   60.4566 H       1  ZINC000629379364    0.0800
     29 H29       -10.1418   -4.4923   60.0802 H       1  ZINC000629379364    0.1100
     30 H30        -9.1588   -2.6561   61.4500 H       1  ZINC000629379364    0.1200
     31 H31        -8.3384   -2.8774   59.8927 H       1  ZINC000629379364    0.1300
     32 H32       -11.3437   -0.1232   59.9450 H       1  ZINC000629379364    0.1400
     33 H33       -11.3249   -1.5506   61.0082 H       1  ZINC000629379364    0.1700
     34 H34        -9.7979    1.0375   61.5391 H       1  ZINC000629379364    0.1100
     35 H35       -11.3521    0.6022   62.2899 H       1  ZINC000629379364    0.0900
     36 H36        -8.8872   -1.7805   65.0085 H       1  ZINC000629379364    0.1500
     37 H37        -9.1308    1.6497   67.5368 H       1  ZINC000629379364    0.1500
     38 H38       -10.2270    1.9560   63.4258 H       1  ZINC000629379364    0.1500
     39 H39       -10.5058    0.9419   58.6522 H       1  ZINC000629379364    0.0800
     40 H40        -8.8729    0.8842   57.9110 H       1  ZINC000629379364    0.0900
     41 H41       -11.2162    0.8469   56.4106 H       1  ZINC000629379364    0.0800
     42 H42        -9.6964    0.0830   55.8633 H       1  ZINC000629379364    0.0800
     43 H43       -12.1943   -1.2336   56.5021 H       1  ZINC000629379364    0.0900
     44 H44       -10.6435   -2.0053   56.0548 H       1  ZINC000629379364    0.0800
@<TRIPOS>BOND
     1     1     2   ar
     2     2     3   ar
     3     2     4    1
     4     4     5    1
     5     4    26    1
     6     4     6    1
     7     6     7    1
     8     6    28    1
     9     6    29    1
    10     7     8    1
    11     7    30    1
    12     7    31    1
    13     8     9    1
    14     8    10    1
    15     8    21    1
    16    10    11    1
    17    10    32    1
    18    10    33    1
    19    11    12    1
    20    11    34    1
    21    11    35    1
    22    12    13    1
    23    13    20   ar
    24    13    14   ar
    25    14    15   ar
    26    14    36    1
    27    15    16    1
    28    15    17   ar
    29    17    18   ar
    30    17    37    1
    31    18    19    1
    32    18    20   ar
    33    20    38    1
    34    21    22    1
    35    21    26    1
    36    21    23    1
    37    23    24    1
    38    23    39    1
    39    23    40    1
    40    24    25    1
    41    24    41    1
    42    24    42    1
    43    25    26    1
    44    25    43    1
    45    25    44    1
    46    26    27    1
@<TRIPOS>SUBSTRUCTURE
     1 ZINC000629379364        1 TEMP              0 ****  ****    0 ROOT


##########                                Name:    ZINC000979274057
##########                DOCK_Rotatable_Bonds:                   6
##########                         Heavy_Atoms:                  24
##########                    Molecular_Weight:              330.39
##########                DOCK_Rotatable_Bonds:                   6
##########                       Formal_Charge:          0.00999946
##########                     HBond_Acceptors:                   8
##########                        HBond_Donors:                   1
##########                         Heavy_Atoms:                  24
##########                          Grid_Score:          -32.826298
##########                     Grid_vdw_energy:          -32.363770
##########                      Grid_es_energy:           -0.462527
##########           Internal_energy_repulsive:           11.607522

@<TRIPOS>MOLECULE
ZINC000979274057
 46 48 1 0 0
SMALL
USER_CHARGES


@<TRIPOS>ATOM
      1 C1         -9.6030   -3.9269   59.2373 C.3     1  ZINC000979274057   -0.1400
      2 C2        -10.4805   -2.9896   58.4054 C.3     1  ZINC000979274057    0.1000
      3 H3         -9.8507   -2.2656   57.8885 H       1  ZINC000979274057    0.0600
      4 N4        -11.4161   -2.2817   59.2894 N.3     1  ZINC000979274057   -0.6700
      5 C5        -11.1417   -0.8385   59.2989 C.3     1  ZINC000979274057    0.1300
      6 C6        -10.6230   -0.4347   60.6550 C.ar    1  ZINC000979274057    0.3200
      7 N7        -10.0433   -1.3413   61.4160 N.ar    1  ZINC000979274057   -0.5200
      8 C8         -9.5758   -1.0237   62.6125 C.ar    1  ZINC000979274057    0.1500
      9 C9         -9.7027    0.2817   63.0611 C.ar    1  ZINC000979274057   -0.2300
     10 C10       -10.3181    1.2065   62.2325 C.ar    1  ZINC000979274057    0.1500
     11 N11       -10.7564    0.8168   61.0462 N.ar    1  ZINC000979274057   -0.5000
     12 C12       -11.2678   -3.8059   57.3784 C.3     1  ZINC000979274057    0.0800
     13 H13       -10.5977   -4.5047   56.8778 H       1  ZINC000979274057    0.0700
     14 C14       -11.8901   -2.8623   56.3427 C.3     1  ZINC000979274057    0.0800
     15 N15       -12.7898   -3.6465   55.4820 N.am    1  ZINC000979274057   -0.6000
     16 C16       -12.7019   -3.5752   54.1390 C.2     1  ZINC000979274057    0.6100
     17 O17       -13.4545   -4.2314   53.4447 O.2     1  ZINC000979274057   -0.5400
     18 C18       -11.6943   -2.7024   53.5120 C.2     1  ZINC000979274057   -0.0600
     19 C19       -11.6698   -1.3391   53.5542 C.2     1  ZINC000979274057    0.0400
     20 N20       -10.5807   -0.9438   52.8540 N.pl3   1  ZINC000979274057   -0.4600
     21 C21       -10.1520    0.4393   52.6315 C.3     1  ZINC000979274057    0.0700
     22 C22        -9.9564   -2.0596   52.3951 C.2     1  ZINC000979274057    0.1900
     23 N23       -10.6176   -3.1085   52.7916 N.2     1  ZINC000979274057   -0.4600
     24 C24       -13.7882   -4.5112   56.1308 C.3     1  ZINC000979274057    0.0500
     25 C25       -13.0733   -5.3744   57.1768 C.3     1  ZINC000979274057    0.0500
     26 O26       -12.3069   -4.5312   58.0401 O.3     1  ZINC000979274057   -0.3600
     27 H27        -9.0421   -3.3454   59.9690 H       1  ZINC000979274057    0.0600
     28 H28       -10.2328   -4.6508   59.7543 H       1  ZINC000979274057    0.0700
     29 H29        -8.9087   -4.4523   58.5815 H       1  ZINC000979274057    0.0600
     30 H30       -12.3725   -2.4661   59.0257 H       1  ZINC000979274057    0.3500
     31 H31       -10.3945   -0.6058   58.5401 H       1  ZINC000979274057    0.1000
     32 H32       -12.0602   -0.2925   59.0838 H       1  ZINC000979274057    0.0600
     33 H33        -9.1021   -1.7714   63.2313 H       1  ZINC000979274057    0.1700
     34 H34        -9.3313    0.5709   64.0331 H       1  ZINC000979274057    0.1500
     35 H35       -10.4349    2.2325   62.5489 H       1  ZINC000979274057    0.1700
     36 H36       -12.4562   -2.0816   56.8508 H       1  ZINC000979274057    0.0700
     37 H37       -11.1037   -2.4115   55.7375 H       1  ZINC000979274057    0.1000
     38 H38       -12.3829   -0.6979   54.0509 H       1  ZINC000979274057    0.1900
     39 H39        -9.4808    0.7453   53.4340 H       1  ZINC000979274057    0.0800
     40 H40        -9.6318    0.5092   51.6762 H       1  ZINC000979274057    0.0900
     41 H41       -11.0244    1.0926   52.6187 H       1  ZINC000979274057    0.0900
     42 H42        -9.0548   -2.0742   51.8008 H       1  ZINC000979274057    0.2100
     43 H43       -14.5454   -3.8966   56.6176 H       1  ZINC000979274057    0.0700
     44 H44       -14.2586   -5.1522   55.3853 H       1  ZINC000979274057    0.1500
     45 H45       -13.8115   -5.9214   57.7634 H       1  ZINC000979274057    0.1100
     46 H46       -12.4106   -6.0796   56.6753 H       1  ZINC000979274057    0.0500
@<TRIPOS>BOND
     1     1     2    1
     2     1    27    1
     3     1    28    1
     4     1    29    1
     5     2     3    1
     6     2     4    1
     7     2    12    1
     8     4     5    1
     9     4    30    1
    10     5     6    1
    11     5    31    1
    12     5    32    1
    13     6    11   ar
    14     6     7   ar
    15     7     8   ar
    16     8     9   ar
    17     8    33    1
    18     9    10   ar
    19     9    34    1
    20    10    11   ar
    21    10    35    1
    22    12    13    1
    23    12    26    1
    24    12    14    1
    25    14    15    1
    26    14    36    1
    27    14    37    1
    28    15    16   am
    29    15    24    1
    30    16    17    2
    31    16    18    1
    32    18    23    1
    33    18    19    2
    34    19    20    1
    35    19    38    1
    36    20    21    1
    37    20    22    1
    38    21    39    1
    39    21    40    1
    40    21    41    1
    41    22    23    2
    42    22    42    1
    43    24    25    1
    44    24    43    1
    45    24    44    1
    46    25    26    1
    47    25    45    1
    48    25    46    1
@<TRIPOS>SUBSTRUCTURE
     1 ZINC000979274057        1 TEMP              0 ****  ****    0 ROOT


##########                                Name:    ZINC001074839487
##########                DOCK_Rotatable_Bonds:                   7
##########                         Heavy_Atoms:                  25
##########                    Molecular_Weight:             344.454
##########                DOCK_Rotatable_Bonds:                   7
##########                       Formal_Charge:          -0.0500005
##########                     HBond_Acceptors:                   5
##########                        HBond_Donors:                   1
##########                         Heavy_Atoms:                  25
##########                          Grid_Score:          -32.793522
##########                     Grid_vdw_energy:          -32.508224
##########                      Grid_es_energy:           -0.285296
##########           Internal_energy_repulsive:           90.719521

@<TRIPOS>MOLECULE
ZINC001074839487
 53 55 1 0 0
SMALL
USER_CHARGES


@<TRIPOS>ATOM
      1 C1        -14.4515   -0.0864   48.1121 C.3     1  ZINC001074839487   -0.1500
      2 C2        -14.4718   -0.5099   49.5821 C.3     1  ZINC001074839487   -0.1300
      3 C3        -13.8960    0.6147   50.4450 C.3     1  ZINC001074839487   -0.1100
      4 C4        -13.8915    0.1806   51.9121 C.3     1  ZINC001074839487   -0.1400
      5 C5        -12.9463   -0.9796   52.0898 C.2     1  ZINC001074839487    0.5100
      6 O6        -11.9204   -1.0303   51.4450 O.2     1  ZINC001074839487   -0.5400
      7 N7        -13.2410   -1.9609   52.9655 N.am    1  ZINC001074839487   -0.7300
      8 C8        -12.3231   -3.0896   53.1369 C.3     1  ZINC001074839487    0.1400
      9 H9        -11.7780   -3.2587   52.2082 H       1  ZINC001074839487    0.0900
     10 C10       -11.3320   -2.7749   54.2598 C.3     1  ZINC001074839487   -0.1500
     11 C11       -12.1034   -2.5042   55.5553 C.3     1  ZINC001074839487    0.0700
     12 N12       -12.9829   -3.6487   55.8299 N.am    1  ZINC001074839487   -0.6000
     13 C13       -12.9374   -4.2796   57.0201 C.2     1  ZINC001074839487    0.5600
     14 O14       -13.6703   -5.2251   57.2351 O.2     1  ZINC001074839487   -0.5200
     15 C15       -11.9962   -3.8215   58.0641 C.ar    1  ZINC001074839487   -0.1300
     16 C16       -10.7755   -4.4741   58.2423 C.ar    1  ZINC001074839487   -0.1000
     17 C17        -9.9005   -4.0423   59.2187 C.ar    1  ZINC001074839487   -0.1000
     18 C18       -10.2313   -2.9663   60.0186 C.ar    1  ZINC001074839487   -0.1100
     19 C19        -9.5049   -2.2710   61.1469 C.3     1  ZINC001074839487    0.0900
     20 O20       -10.5038   -1.5130   61.8532 O.3     1  ZINC001074839487   -0.3600
     21 C21       -11.4997   -1.1967   60.8633 C.3     1  ZINC001074839487    0.0900
     22 C22       -11.4438   -2.3131   59.8465 C.ar    1  ZINC001074839487   -0.1400
     23 C23       -12.3226   -2.7303   58.8725 C.ar    1  ZINC001074839487   -0.0400
     24 C24       -13.9124   -4.0927   54.7824 C.3     1  ZINC001074839487    0.1500
     25 H25       -14.6600   -3.3194   54.6055 H       1  ZINC001074839487    0.0700
     26 C26       -14.6019   -5.3856   55.2228 C.3     1  ZINC001074839487   -0.1400
     27 C27       -13.1208   -4.3456   53.4955 C.3     1  ZINC001074839487   -0.1400
     28 H28       -15.0532    0.8135   47.9849 H       1  ZINC001074839487    0.0500
     29 H29       -14.8617   -0.8876   47.4974 H       1  ZINC001074839487    0.0500
     30 H30       -13.4250    0.1167   47.8066 H       1  ZINC001074839487    0.0500
     31 H31       -15.4982   -0.7131   49.8876 H       1  ZINC001074839487    0.0600
     32 H32       -13.8701   -1.4099   49.7093 H       1  ZINC001074839487    0.0600
     33 H33       -12.8760    0.8308   50.1269 H       1  ZINC001074839487    0.0700
     34 H34       -14.5089    1.5090   50.3326 H       1  ZINC001074839487    0.0700
     35 H35       -13.5664    1.0130   52.5362 H       1  ZINC001074839487    0.0900
     36 H36       -14.8970   -0.1218   52.2046 H       1  ZINC001074839487    0.0900
     37 H37       -14.0610   -1.9197   53.4820 H       1  ZINC001074839487    0.4000
     38 H38       -10.6645   -3.6242   54.4045 H       1  ZINC001074839487    0.0800
     39 H39       -10.7481   -1.8939   53.9932 H       1  ZINC001074839487    0.0800
     40 H40       -11.4010   -2.3771   56.3791 H       1  ZINC001074839487    0.1200
     41 H41       -12.7035   -1.6013   55.4415 H       1  ZINC001074839487    0.0700
     42 H42       -10.5157   -5.3155   57.6169 H       1  ZINC001074839487    0.1500
     43 H43        -8.9555   -4.5465   59.3570 H       1  ZINC001074839487    0.1400
     44 H44        -9.0519   -3.0066   61.8116 H       1  ZINC001074839487    0.1000
     45 H45        -8.7407   -1.6044   60.7471 H       1  ZINC001074839487    0.0800
     46 H46       -12.4871   -1.1569   61.3233 H       1  ZINC001074839487    0.1000
     47 H47       -11.2674   -0.2438   60.3880 H       1  ZINC001074839487    0.0800
     48 H48       -13.2637   -2.2180   58.7366 H       1  ZINC001074839487    0.1400
     49 H49       -15.2489   -5.1800   56.0757 H       1  ZINC001074839487    0.0800
     50 H50       -15.1994   -5.7774   54.3996 H       1  ZINC001074839487    0.0500
     51 H51       -13.8487   -6.1205   55.5069 H       1  ZINC001074839487    0.0700
     52 H52       -13.8099   -4.5826   52.6850 H       1  ZINC001074839487    0.0900
     53 H53       -12.4363   -5.1801   53.6475 H       1  ZINC001074839487    0.0900
@<TRIPOS>BOND
     1     1     2    1
     2     1    28    1
     3     1    29    1
     4     1    30    1
     5     2     3    1
     6     2    31    1
     7     2    32    1
     8     3     4    1
     9     3    33    1
    10     3    34    1
    11     4     5    1
    12     4    35    1
    13     4    36    1
    14     5     6    2
    15     5     7   am
    16     7     8    1
    17     7    37    1
    18     8     9    1
    19     8    27    1
    20     8    10    1
    21    10    11    1
    22    10    38    1
    23    10    39    1
    24    11    12    1
    25    11    40    1
    26    11    41    1
    27    12    13   am
    28    12    24    1
    29    13    14    2
    30    13    15    1
    31    15    23   ar
    32    15    16   ar
    33    16    17   ar
    34    16    42    1
    35    17    18   ar
    36    17    43    1
    37    18    22   ar
    38    18    19    1
    39    19    20    1
    40    19    44    1
    41    19    45    1
    42    20    21    1
    43    21    22    1
    44    21    46    1
    45    21    47    1
    46    22    23   ar
    47    23    48    1
    48    24    25    1
    49    24    26    1
    50    24    27    1
    51    26    49    1
    52    26    50    1
    53    26    51    1
    54    27    52    1
    55    27    53    1
@<TRIPOS>SUBSTRUCTURE
     1 ZINC001074839487        1 TEMP              0 ****  ****    0 ROOT


##########                                Name:    ZINC001757264545
##########                DOCK_Rotatable_Bonds:                  11
##########                         Heavy_Atoms:                  25
##########                    Molecular_Weight:             344.497
##########                DOCK_Rotatable_Bonds:                  11
##########                       Formal_Charge:          0.00999946
##########                     HBond_Acceptors:                   4
##########                        HBond_Donors:                   2
##########                         Heavy_Atoms:                  25
##########                          Grid_Score:          -32.782829
##########                     Grid_vdw_energy:          -32.402927
##########                      Grid_es_energy:           -0.379904
##########           Internal_energy_repulsive:            9.017089

@<TRIPOS>MOLECULE
ZINC001757264545
 57 57 1 0 0
SMALL
USER_CHARGES


@<TRIPOS>ATOM
      1 C1         -9.4075   -0.7549   63.9711 C.1     1  ZINC001757264545   -0.2100
      2 C2        -10.1404   -0.5007   63.0898 C.1     1  ZINC001757264545   -0.1900
      3 C3        -11.0593   -0.1821   61.9849 C.3     1  ZINC001757264545   -0.0100
      4 C4        -11.1194   -1.3638   61.0148 C.3     1  ZINC001757264545   -0.1200
      5 C5         -9.7192   -1.6444   60.4657 C.3     1  ZINC001757264545   -0.1200
      6 C6         -9.8319   -2.2307   59.0570 C.3     1  ZINC001757264545   -0.1000
      7 C7         -9.8265   -1.0962   58.0304 C.3     1  ZINC001757264545   -0.1400
      8 C8        -10.9878   -1.2682   57.0855 C.2     1  ZINC001757264545    0.5100
      9 O9        -11.8682   -0.4349   57.0487 O.2     1  ZINC001757264545   -0.5400
     10 N10       -11.0481   -2.3482   56.2814 N.am    1  ZINC001757264545   -0.7300
     11 C11       -12.1760   -2.5145   55.3616 C.3     1  ZINC001757264545    0.1400
     12 H12       -12.8705   -1.6833   55.4841 H       1  ZINC001757264545    0.1000
     13 C13       -12.8952   -3.8294   55.6690 C.3     1  ZINC001757264545   -0.1300
     14 C14       -14.0733   -4.0032   54.7083 C.3     1  ZINC001757264545   -0.1200
     15 C15       -13.5575   -4.0286   53.2681 C.3     1  ZINC001757264545   -0.1200
     16 C16       -12.8382   -2.7137   52.9607 C.3     1  ZINC001757264545   -0.1300
     17 C17       -11.6602   -2.5401   53.9214 C.3     1  ZINC001757264545    0.1400
     18 H18       -10.9658   -3.3712   53.7988 H       1  ZINC001757264545    0.1000
     19 N19       -10.9716   -1.2810   53.6270 N.am    1  ZINC001757264545   -0.7200
     20 C20       -10.0249   -1.2387   52.6685 C.2     1  ZINC001757264545    0.6400
     21 O21        -9.7434   -2.2455   52.0471 O.2     1  ZINC001757264545   -0.5200
     22 C22        -9.3505   -0.0083   52.3819 C.1     1  ZINC001757264545   -0.2300
     23 C23        -8.7976    1.0003   52.1470 C.1     1  ZINC001757264545   -0.0500
     24 C24        -8.1044    2.2650   51.8524 C.3     1  ZINC001757264545    0.0300
     25 C25        -7.7415    2.9650   53.1636 C.3     1  ZINC001757264545   -0.1400
     26 C26        -6.8288    1.9745   51.0593 C.3     1  ZINC001757264545   -0.1400
     27 C27        -9.0225    3.1699   51.0283 C.3     1  ZINC001757264545   -0.1400
     28 H28        -8.7521   -0.9823   64.7592 H       1  ZINC001757264545    0.2200
     29 H29       -10.7013    0.7025   61.4583 H       1  ZINC001757264545    0.0900
     30 H30       -12.0548    0.0109   62.3846 H       1  ZINC001757264545    0.0900
     31 H31       -11.7913   -1.1236   60.1909 H       1  ZINC001757264545    0.0700
     32 H32       -11.4876   -2.2457   61.5388 H       1  ZINC001757264545    0.0700
     33 H33        -9.2098   -2.3559   61.1156 H       1  ZINC001757264545    0.0700
     34 H34        -9.1507   -0.7152   60.4281 H       1  ZINC001757264545    0.0700
     35 H35       -10.7611   -2.7940   58.9711 H       1  ZINC001757264545    0.0700
     36 H36        -8.9868   -2.8933   58.8705 H       1  ZINC001757264545    0.0700
     37 H37        -8.8935   -1.1199   57.4675 H       1  ZINC001757264545    0.0900
     38 H38        -9.9158   -0.1397   58.5455 H       1  ZINC001757264545    0.0900
     39 H39       -10.3445   -3.0153   56.3118 H       1  ZINC001757264545    0.4000
     40 H40       -12.2008   -4.6607   55.5465 H       1  ZINC001757264545    0.0700
     41 H41       -13.2628   -3.8113   56.6950 H       1  ZINC001757264545    0.0800
     42 H42       -14.5857   -4.9400   54.9273 H       1  ZINC001757264545    0.0700
     43 H43       -14.7677   -3.1720   54.8308 H       1  ZINC001757264545    0.0700
     44 H44       -14.3967   -4.1525   52.5837 H       1  ZINC001757264545    0.0700
     45 H45       -12.8631   -4.8598   53.1456 H       1  ZINC001757264545    0.0700
     46 H46       -13.5326   -1.8825   53.0832 H       1  ZINC001757264545    0.0700
     47 H47       -12.4707   -2.7319   51.9346 H       1  ZINC001757264545    0.0800
     48 H48       -11.1968   -0.4777   54.1219 H       1  ZINC001757264545    0.4000
     49 H49        -7.0874    2.3204   53.7507 H       1  ZINC001757264545    0.0600
     50 H50        -7.2281    3.9015   52.9454 H       1  ZINC001757264545    0.0700
     51 H51        -8.6503    3.1719   53.7287 H       1  ZINC001757264545    0.0600
     52 H52        -7.0873    1.4759   50.1252 H       1  ZINC001757264545    0.0600
     53 H53        -6.3154    2.9110   50.8411 H       1  ZINC001757264545    0.0700
     54 H54        -6.1747    1.3299   51.6464 H       1  ZINC001757264545    0.0600
     55 H55        -9.9314    3.3768   51.5934 H       1  ZINC001757264545    0.0600
     56 H56        -8.5091    4.1064   50.8101 H       1  ZINC001757264545    0.0700
     57 H57        -9.2811    2.6711   50.0942 H       1  ZINC001757264545    0.0600
@<TRIPOS>BOND
     1     1     2    3
     2     1    28    1
     3     2     3    1
     4     3     4    1
     5     3    29    1
     6     3    30    1
     7     4     5    1
     8     4    31    1
     9     4    32    1
    10     5     6    1
    11     5    33    1
    12     5    34    1
    13     6     7    1
    14     6    35    1
    15     6    36    1
    16     7     8    1
    17     7    37    1
    18     7    38    1
    19     8     9    2
    20     8    10   am
    21    10    11    1
    22    10    39    1
    23    11    12    1
    24    11    17    1
    25    11    13    1
    26    13    14    1
    27    13    40    1
    28    13    41    1
    29    14    15    1
    30    14    42    1
    31    14    43    1
    32    15    16    1
    33    15    44    1
    34    15    45    1
    35    16    17    1
    36    16    46    1
    37    16    47    1
    38    17    18    1
    39    17    19    1
    40    19    20   am
    41    19    48    1
    42    20    21    2
    43    20    22    1
    44    22    23    3
    45    23    24    1
    46    24    25    1
    47    24    26    1
    48    24    27    1
    49    25    49    1
    50    25    50    1
    51    25    51    1
    52    26    52    1
    53    26    53    1
    54    26    54    1
    55    27    55    1
    56    27    56    1
    57    27    57    1
@<TRIPOS>SUBSTRUCTURE
     1 ZINC001757264545        1 TEMP              0 ****  ****    0 ROOT


##########                                Name:    ZINC000995593866
##########                DOCK_Rotatable_Bonds:                   7
##########                         Heavy_Atoms:                  24
##########                    Molecular_Weight:             342.389
##########                DOCK_Rotatable_Bonds:                   7
##########                       Formal_Charge:                0.03
##########                     HBond_Acceptors:                   8
##########                        HBond_Donors:                   1
##########                         Heavy_Atoms:                  24
##########                          Grid_Score:          -32.776302
##########                     Grid_vdw_energy:          -31.944397
##########                      Grid_es_energy:           -0.831904
##########           Internal_energy_repulsive:           10.180362

@<TRIPOS>MOLECULE
ZINC000995593866
 48 50 1 0 0
SMALL
USER_CHARGES


@<TRIPOS>ATOM
      1 C1         -9.5532    0.1051   57.6065 C.3     1  ZINC000995593866   -0.1400
      2 C2        -10.5988   -0.2277   58.6728 C.3     1  ZINC000995593866   -0.0800
      3 C3        -11.1855    1.0573   59.2605 C.3     1  ZINC000995593866   -0.1400
      4 C4        -11.7178   -1.1054   58.0718 C.3     1  ZINC000995593866    0.1200
      5 N5        -11.3138   -2.4950   58.3889 N.am    1  ZINC000995593866   -0.6300
      6 C6        -11.4199   -3.5861   57.6048 C.2     1  ZINC000995593866    0.5400
      7 O7        -11.0395   -4.6639   58.0107 O.2     1  ZINC000995593866   -0.5300
      8 C8        -12.0112   -3.4670   56.2238 C.3     1  ZINC000995593866   -0.1300
      9 C9        -12.8610   -4.7035   55.9245 C.3     1  ZINC000995593866   -0.1000
     10 C10       -14.3048   -4.5992   56.4439 C.3     1  ZINC000995593866   -0.1300
     11 C11       -14.7415   -5.2767   55.1343 C.3     1  ZINC000995593866   -0.1400
     12 C12       -13.4556   -4.7138   54.5063 C.3     1  ZINC000995593866   -0.1400
     13 C13       -10.7669   -2.4132   59.7632 C.3     1  ZINC000995593866    0.1100
     14 C14        -9.9718   -1.0900   59.7881 C.3     1  ZINC000995593866    0.0800
     15 H15        -8.9190   -1.2765   59.5763 H       1  ZINC000995593866    0.0700
     16 N16       -10.1202   -0.4294   61.0917 N.3     1  ZINC000995593866   -0.6800
     17 C17        -9.5164   -1.2347   62.1617 C.3     1  ZINC000995593866    0.1500
     18 C18        -9.3722   -0.3931   63.4034 C.2     1  ZINC000995593866    0.1900
     19 N19        -9.3784   -0.8219   64.6425 N.2     1  ZINC000995593866   -0.4300
     20 C20        -9.2213    0.2743   65.4059 C.2     1  ZINC000995593866    0.0900
     21 C21        -9.1622    0.3119   66.9113 C.3     1  ZINC000995593866    0.3800
     22 F22       -10.4571    0.4382   67.4256 F       1  ZINC000995593866   -0.1800
     23 F23        -8.5856   -0.8715   67.3850 F       1  ZINC000995593866   -0.1700
     24 N24        -9.1294    1.2948   64.6068 N.2     1  ZINC000995593866   -0.3400
     25 O25        -9.2078    0.9323   63.4519 O.3     1  ZINC000995593866    0.1000
     26 H26        -9.1725   -0.8184   57.1702 H       1  ZINC000995593866    0.0600
     27 H27       -10.0107    0.7139   56.8267 H       1  ZINC000995593866    0.0600
     28 H28        -8.7316    0.6569   58.0631 H       1  ZINC000995593866    0.0600
     29 H29       -11.6471    1.6428   58.4653 H       1  ZINC000995593866    0.0700
     30 H30       -11.9367    0.8048   60.0087 H       1  ZINC000995593866    0.0700
     31 H31       -10.3905    1.6400   59.7260 H       1  ZINC000995593866    0.0600
     32 H32       -12.6752   -0.8722   58.5376 H       1  ZINC000995593866    0.0800
     33 H33       -11.7742   -0.9628   56.9926 H       1  ZINC000995593866    0.0900
     34 H34       -12.6361   -2.5754   56.1718 H       1  ZINC000995593866    0.0900
     35 H35       -11.2086   -3.3914   55.4901 H       1  ZINC000995593866    0.0900
     36 H36       -12.3640   -5.6347   56.1963 H       1  ZINC000995593866    0.1000
     37 H37       -14.4940   -5.2025   57.3317 H       1  ZINC000995593866    0.0700
     38 H38       -14.6596   -3.5735   56.5443 H       1  ZINC000995593866    0.0800
     39 H39       -14.7597   -6.3650   55.1906 H       1  ZINC000995593866    0.0800
     40 H40       -15.6541   -4.8585   54.7095 H       1  ZINC000995593866    0.0700
     41 H41       -13.5783   -3.7195   54.0770 H       1  ZINC000995593866    0.0800
     42 H42       -12.9592   -5.4097   53.8298 H       1  ZINC000995593866    0.0700
     43 H43       -11.5759   -2.3844   60.4931 H       1  ZINC000995593866    0.0900
     44 H44       -10.1060   -3.2574   59.9601 H       1  ZINC000995593866    0.0800
     45 H45        -9.7277    0.4998   61.0730 H       1  ZINC000995593866    0.3600
     46 H46       -10.1548   -2.0918   62.3758 H       1  ZINC000995593866    0.1200
     47 H47        -8.5341   -1.5838   61.8433 H       1  ZINC000995593866    0.0800
     48 H48        -8.5600    1.1626   67.2301 H       1  ZINC000995593866    0.1500
@<TRIPOS>BOND
     1     1     2    1
     2     1    26    1
     3     1    27    1
     4     1    28    1
     5     2    14    1
     6     2     3    1
     7     2     4    1
     8     3    29    1
     9     3    30    1
    10     3    31    1
    11     4     5    1
    12     4    32    1
    13     4    33    1
    14     5     6   am
    15     5    13    1
    16     6     7    2
    17     6     8    1
    18     8     9    1
    19     8    34    1
    20     8    35    1
    21     9    12    1
    22     9    10    1
    23     9    36    1
    24    10    11    1
    25    10    37    1
    26    10    38    1
    27    11    12    1
    28    11    39    1
    29    11    40    1
    30    12    41    1
    31    12    42    1
    32    13    14    1
    33    13    43    1
    34    13    44    1
    35    14    15    1
    36    14    16    1
    37    16    17    1
    38    16    45    1
    39    17    18    1
    40    17    46    1
    41    17    47    1
    42    18    25    1
    43    18    19    2
    44    19    20    1
    45    20    21    1
    46    20    24    2
    47    21    22    1
    48    21    23    1
    49    21    48    1
    50    24    25    1
@<TRIPOS>SUBSTRUCTURE
     1 ZINC000995593866        1 TEMP              0 ****  ****    0 ROOT


##########                                Name:    ZINC000444205493
##########                DOCK_Rotatable_Bonds:                   4
##########                         Heavy_Atoms:                  24
##########                    Molecular_Weight:             415.351
##########                DOCK_Rotatable_Bonds:                   4
##########                       Formal_Charge:         -0.00999995
##########                     HBond_Acceptors:                   6
##########                        HBond_Donors:                   1
##########                         Heavy_Atoms:                  24
##########                          Grid_Score:          -32.774666
##########                     Grid_vdw_energy:          -31.372307
##########                      Grid_es_energy:           -1.402357
##########           Internal_energy_repulsive:            4.792323

@<TRIPOS>MOLECULE
ZINC000444205493
 47 49 1 0 0
SMALL
USER_CHARGES


@<TRIPOS>ATOM
      1 C1         -5.2348    1.3965   50.7088 C.3     1  ZINC000444205493   -0.1700
      2 C2         -6.6501    0.8921   50.8246 C.2     1  ZINC000444205493    0.5100
      3 O3         -7.3660    0.8647   49.8459 O.2     1  ZINC000444205493   -0.5100
      4 N4         -7.1204    0.4716   52.0155 N.am    1  ZINC000444205493   -0.6800
      5 C5         -8.4349    0.0032   52.1230 C.ar    1  ZINC000444205493    0.2300
      6 C6         -8.7142   -1.3401   51.9119 C.ar    1  ZINC000444205493   -0.1400
      7 C7        -10.0126   -1.7996   52.0192 C.ar    1  ZINC000444205493    0.0200
      8 C8        -11.0340   -0.9232   52.3360 C.ar    1  ZINC000444205493   -0.6900
      9 S9        -12.6886   -1.5137   52.4712 S.o2    1  ZINC000444205493    2.7100
     10 O10       -13.5223   -0.3640   52.5193 O.2     1  ZINC000444205493   -0.9500
     11 O11       -12.8306   -2.5366   51.4949 O.2     1  ZINC000444205493   -0.9500
     12 N12       -12.8262   -2.2532   53.9465 N.am    1  ZINC000444205493   -1.0100
     13 C13       -12.0369   -3.4121   54.4049 C.3     1  ZINC000444205493    0.1200
     14 C14       -12.0684   -3.3305   55.9534 C.3     1  ZINC000444205493   -0.1200
     15 C15       -13.4930   -2.7989   56.2035 C.3     1  ZINC000444205493   -0.0700
     16 C16       -14.5054   -3.9483   56.2430 C.3     1  ZINC000444205493   -0.1100
     17 C17       -14.7152   -4.2089   57.7578 C.3     1  ZINC000444205493   -0.1200
     18 C18       -14.6636   -2.7835   58.3642 C.3     1  ZINC000444205493   -0.1000
     19 H19       -15.6264   -2.2853   58.2499 H       1  ZINC000444205493    0.0700
     20 C20       -14.2654   -2.8436   59.8402 C.3     1  ZINC000444205493   -0.1500
     21 C21       -13.5779   -2.0580   57.5374 C.3     1  ZINC000444205493   -0.1100
     22 C22       -13.7526   -1.8589   55.0216 C.3     1  ZINC000444205493    0.1300
     23 C23       -10.7598    0.4157   52.5475 C.ar    1  ZINC000444205493    0.0300
     24 C24        -9.4627    0.8808   52.4469 C.ar    1  ZINC000444205493   -0.1500
     25 Br25       -9.0884    2.7117   52.7361 Br      1  ZINC000444205493   -0.0300
     26 H26        -5.0367    1.6897   49.6779 H       1  ZINC000444205493    0.1000
     27 H27        -5.1012    2.2577   51.3636 H       1  ZINC000444205493    0.1000
     28 H28        -4.5427    0.6069   51.0014 H       1  ZINC000444205493    0.1000
     29 H29        -6.5479    0.4937   52.7982 H       1  ZINC000444205493    0.4200
     30 H30        -7.9171   -2.0254   51.6637 H       1  ZINC000444205493    0.1600
     31 H31       -10.2302   -2.8447   51.8550 H       1  ZINC000444205493    0.1500
     32 H32       -12.4951   -4.3410   54.0649 H       1  ZINC000444205493    0.0800
     33 H33       -11.0116   -3.3395   54.0423 H       1  ZINC000444205493    0.0800
     34 H34       -11.9347   -4.3159   56.3998 H       1  ZINC000444205493    0.0900
     35 H35       -11.3193   -2.6305   56.3234 H       1  ZINC000444205493    0.0800
     36 H36       -15.4423   -3.6490   55.7731 H       1  ZINC000444205493    0.0700
     37 H37       -14.0978   -4.8339   55.7555 H       1  ZINC000444205493    0.0700
     38 H38       -15.6858   -4.6704   57.9392 H       1  ZINC000444205493    0.0700
     39 H39       -13.9118   -4.8275   58.1577 H       1  ZINC000444205493    0.0700
     40 H40       -13.2931   -3.3270   59.9348 H       1  ZINC000444205493    0.0500
     41 H41       -14.2092   -1.8323   60.2430 H       1  ZINC000444205493    0.0500
     42 H42       -15.0104   -3.4145   60.3946 H       1  ZINC000444205493    0.0500
     43 H43       -12.6193   -2.1052   58.0541 H       1  ZINC000444205493    0.0700
     44 H44       -13.8643   -1.0195   57.3717 H       1  ZINC000444205493    0.0700
     45 H45       -13.5677   -0.8269   55.3196 H       1  ZINC000444205493    0.0700
     46 H46       -14.7812   -1.9687   54.6779 H       1  ZINC000444205493    0.0800
     47 H47       -11.5598    1.0976   52.7951 H       1  ZINC000444205493    0.1500
@<TRIPOS>BOND
     1     1     2    1
     2     1    26    1
     3     1    27    1
     4     1    28    1
     5     2     3    2
     6     2     4   am
     7     4     5    1
     8     4    29    1
     9     5    24   ar
    10     5     6   ar
    11     6     7   ar
    12     6    30    1
    13     7     8   ar
    14     7    31    1
    15     8     9    1
    16     8    23   ar
    17     9    10    2
    18     9    11    2
    19     9    12   am
    20    12    22    1
    21    12    13    1
    22    13    14    1
    23    13    32    1
    24    13    33    1
    25    14    15    1
    26    14    34    1
    27    14    35    1
    28    15    21    1
    29    15    16    1
    30    15    22    1
    31    16    17    1
    32    16    36    1
    33    16    37    1
    34    17    18    1
    35    17    38    1
    36    17    39    1
    37    18    19    1
    38    18    20    1
    39    18    21    1
    40    20    40    1
    41    20    41    1
    42    20    42    1
    43    21    43    1
    44    21    44    1
    45    22    45    1
    46    22    46    1
    47    23    24   ar
    48    23    47    1
    49    24    25    1
@<TRIPOS>SUBSTRUCTURE
     1 ZINC000444205493        1 TEMP              0 ****  ****    0 ROOT


##########                                Name:    ZINC001110536231
##########                DOCK_Rotatable_Bonds:                   8
##########                         Heavy_Atoms:                  24
##########                    Molecular_Weight:             329.442
##########                DOCK_Rotatable_Bonds:                   8
##########                       Formal_Charge:          -0.0400001
##########                     HBond_Acceptors:                   5
##########                        HBond_Donors:                   1
##########                         Heavy_Atoms:                  24
##########                          Grid_Score:          -32.763069
##########                     Grid_vdw_energy:          -33.325935
##########                      Grid_es_energy:            0.562866
##########           Internal_energy_repulsive:           25.626299

@<TRIPOS>MOLECULE
ZINC001110536231
 51 53 1 0 0
SMALL
USER_CHARGES


@<TRIPOS>ATOM
      1 C1        -12.2499    0.1570   52.1870 C.3     1  ZINC001110536231   -0.1300
      2 C2        -11.4266   -0.5236   53.2823 C.3     1  ZINC001110536231   -0.1000
      3 C3        -10.5240   -1.5589   52.6622 C.2     1  ZINC001110536231   -0.0200
      4 C4         -9.2330   -1.1385   52.0083 C.3     1  ZINC001110536231   -0.1300
      5 C5        -10.8667   -2.8437   52.6922 C.2     1  ZINC001110536231   -0.2400
      6 C6        -12.1268   -3.2539   53.3306 C.2     1  ZINC001110536231    0.5400
      7 O7        -13.1693   -3.2037   52.7064 O.2     1  ZINC001110536231   -0.5300
      8 N8        -12.1260   -3.6856   54.6075 N.am    1  ZINC001110536231   -0.7300
      9 C9        -13.3807   -4.0958   55.2427 C.3     1  ZINC001110536231    0.1100
     10 H10       -14.0124   -4.6295   54.5327 H       1  ZINC001110536231    0.1000
     11 C11       -14.1265   -2.8678   55.8199 C.3     1  ZINC001110536231   -0.1600
     12 C12       -14.1949   -3.1681   57.3477 C.3     1  ZINC001110536231    0.0500
     13 H13       -14.3509   -2.3021   57.9911 H       1  ZINC001110536231    0.1200
     14 C14       -15.2468   -4.3095   57.4887 C.3     1  ZINC001110536231   -0.1200
     15 C15       -14.5184   -5.5466   56.9089 C.3     1  ZINC001110536231   -0.1100
     16 C16       -13.0982   -4.9776   56.4964 C.3     1  ZINC001110536231    0.0400
     17 H17       -12.3043   -5.7182   56.4000 H       1  ZINC001110536231    0.1200
     18 N18       -12.9029   -3.9153   57.5527 N.3     1  ZINC001110536231   -0.4900
     19 C19       -11.7377   -3.0751   57.2452 C.3     1  ZINC001110536231    0.0600
     20 C20       -10.9929   -2.7641   58.5178 C.ar    1  ZINC001110536231    0.0100
     21 C21       -10.2319   -3.7369   59.1507 C.ar    1  ZINC001110536231   -0.2100
     22 C22        -9.5615   -3.4186   60.3153 C.ar    1  ZINC001110536231    0.1400
     23 N23        -9.6370   -2.2058   60.8291 N.ar    1  ZINC001110536231   -0.5400
     24 C24       -10.3518   -1.2522   60.2551 C.ar    1  ZINC001110536231    0.3200
     25 O25       -10.4011   -0.0185   60.8178 O.3     1  ZINC001110536231   -0.3100
     26 C26       -10.3775    0.0449   62.2453 C.3     1  ZINC001110536231    0.0400
     27 C27       -11.0477   -1.4999   59.0791 C.ar    1  ZINC001110536231   -0.1700
     28 H28       -12.9027    0.9059   52.6355 H       1  ZINC001110536231    0.0500
     29 H29       -11.5798    0.6387   51.4750 H       1  ZINC001110536231    0.0700
     30 H30       -12.8539   -0.5888   51.6701 H       1  ZINC001110536231    0.0400
     31 H31       -10.8225    0.2222   53.7991 H       1  ZINC001110536231    0.0900
     32 H32       -12.0967   -1.0053   53.9943 H       1  ZINC001110536231    0.0600
     33 H33        -8.4317   -1.1470   52.7472 H       1  ZINC001110536231    0.0800
     34 H34        -8.9914   -1.8317   51.2024 H       1  ZINC001110536231    0.0700
     35 H35        -9.3421   -0.1330   51.6021 H       1  ZINC001110536231    0.0700
     36 H36       -10.2198   -3.5856   52.2479 H       1  ZINC001110536231    0.1200
     37 H37       -11.2947   -3.7245   55.1058 H       1  ZINC001110536231    0.4000
     38 H38       -13.5627   -1.9539   55.6334 H       1  ZINC001110536231    0.0700
     39 H39       -15.1289   -2.7945   55.3981 H       1  ZINC001110536231    0.0800
     40 H40       -15.5009   -4.4698   58.5364 H       1  ZINC001110536231    0.0700
     41 H41       -16.1399   -4.0822   56.9066 H       1  ZINC001110536231    0.0700
     42 H42       -14.4115   -6.3203   57.6692 H       1  ZINC001110536231    0.0800
     43 H43       -15.0505   -5.9326   56.0394 H       1  ZINC001110536231    0.0700
     44 H44       -11.0781   -3.6058   56.5586 H       1  ZINC001110536231    0.0900
     45 H45       -12.0715   -2.1460   56.7833 H       1  ZINC001110536231    0.0700
     46 H46       -10.1650   -4.7324   58.7371 H       1  ZINC001110536231    0.1300
     47 H47        -8.9682   -4.1721   60.8119 H       1  ZINC001110536231    0.1600
     48 H48       -10.4221    1.0864   62.5634 H       1  ZINC001110536231    0.1000
     49 H49       -11.2350   -0.4949   62.6472 H       1  ZINC001110536231    0.0600
     50 H50        -9.4574   -0.4086   62.6139 H       1  ZINC001110536231    0.0600
     51 H51       -11.6300   -0.7190   58.6130 H       1  ZINC001110536231    0.1400
@<TRIPOS>BOND
     1     1     2    1
     2     1    28    1
     3     1    29    1
     4     1    30    1
     5     2     3    1
     6     2    31    1
     7     2    32    1
     8     3     4    1
     9     3     5    2
    10     4    33    1
    11     4    34    1
    12     4    35    1
    13     5     6    1
    14     5    36    1
    15     6     7    2
    16     6     8   am
    17     8     9    1
    18     8    37    1
    19     9    10    1
    20     9    16    1
    21     9    11    1
    22    11    12    1
    23    11    38    1
    24    11    39    1
    25    12    13    1
    26    12    18    1
    27    12    14    1
    28    14    15    1
    29    14    40    1
    30    14    41    1
    31    15    16    1
    32    15    42    1
    33    15    43    1
    34    16    17    1
    35    16    18    1
    36    18    19    1
    37    19    20    1
    38    19    44    1
    39    19    45    1
    40    20    27   ar
    41    20    21   ar
    42    21    22   ar
    43    21    46    1
    44    22    23   ar
    45    22    47    1
    46    23    24   ar
    47    24    25    1
    48    24    27   ar
    49    25    26    1
    50    26    48    1
    51    26    49    1
    52    26    50    1
    53    27    51    1
@<TRIPOS>SUBSTRUCTURE
     1 ZINC001110536231        1 TEMP              0 ****  ****    0 ROOT


##########                                Name:    ZINC000623581528
##########                DOCK_Rotatable_Bonds:                   5
##########                         Heavy_Atoms:                  26
##########                    Molecular_Weight:             355.369
##########                DOCK_Rotatable_Bonds:                   5
##########                       Formal_Charge:        -4.47035e-07
##########                     HBond_Acceptors:                   7
##########                        HBond_Donors:                   2
##########                         Heavy_Atoms:                  26
##########                          Grid_Score:          -32.759132
##########                     Grid_vdw_energy:          -28.506866
##########                      Grid_es_energy:           -4.252267
##########           Internal_energy_repulsive:            3.607624

@<TRIPOS>MOLECULE
ZINC000623581528
 44 47 1 0 0
SMALL
USER_CHARGES


@<TRIPOS>ATOM
      1 C1         -9.1384   -3.5702   59.8545 C.3     1  ZINC000623581528    0.1000
      2 N2         -9.7079   -2.2456   59.5946 N.am    1  ZINC000623581528   -0.5500
      3 C3        -10.1311   -1.7799   58.4027 C.2     1  ZINC000623581528    0.6300
      4 O4        -10.1015   -2.3987   57.3565 O.2     1  ZINC000623581528   -0.4800
      5 O5        -10.5901   -0.5271   58.5496 O.3     1  ZINC000623581528   -0.2300
      6 C6        -10.4708   -0.1585   59.8486 C.ar    1  ZINC000623581528    0.0400
      7 C7        -10.7856    1.0041   60.5339 C.ar    1  ZINC000623581528   -0.0800
      8 C8        -10.5444    1.0905   61.8915 C.ar    1  ZINC000623581528   -0.0900
      9 C9         -9.9889    0.0211   62.5716 C.ar    1  ZINC000623581528   -0.0900
     10 C10        -9.7296    0.1253   64.0525 C.3     1  ZINC000623581528    0.1800
     11 N11        -8.6165    1.0478   64.2896 N.am    1  ZINC000623581528   -0.7400
     12 C12        -7.7838    0.8457   65.3299 C.2     1  ZINC000623581528    0.7100
     13 O13        -7.9571   -0.1014   66.0724 O.2     1  ZINC000623581528   -0.5800
     14 N14        -6.7589    1.6936   65.5470 N.am    1  ZINC000623581528   -0.7300
     15 C15        -5.8525    1.4729   66.6768 C.3     1  ZINC000623581528    0.2000
     16 H16        -5.7510    0.4063   66.8766 H       1  ZINC000623581528    0.1000
     17 C17        -6.3726    2.2058   67.9317 C.3     1  ZINC000623581528   -0.1300
     18 C18        -5.6469    3.5653   67.8460 C.3     1  ZINC000623581528   -0.0800
     19 C19        -4.3805    3.2899   67.0638 C.ar    1  ZINC000623581528   -0.1000
     20 C20        -3.2176    4.0329   66.9495 C.ar    1  ZINC000623581528   -0.0800
     21 C21        -2.1749    3.5770   66.1670 C.ar    1  ZINC000623581528   -0.1400
     22 C22        -2.2921    2.3731   65.4938 C.ar    1  ZINC000623581528    0.0900
     23 F23        -1.2738    1.9240   64.7280 F       1  ZINC000623581528   -0.1400
     24 C24        -3.4540    1.6302   65.6071 C.ar    1  ZINC000623581528   -0.1200
     25 C25        -4.4980    2.0850   66.3907 C.ar    1  ZINC000623581528   -0.0900
     26 C26        -9.6716   -1.1421   61.8967 C.ar    1  ZINC000623581528   -0.0800
     27 C27        -9.9167   -1.2385   60.5363 C.ar    1  ZINC000623581528    0.0700
     28 H28        -9.9385   -4.2671   60.1041 H       1  ZINC000623581528    0.0800
     29 H29        -8.6149   -3.9215   58.9653 H       1  ZINC000623581528    0.0900
     30 H30        -8.4381   -3.5075   60.6875 H       1  ZINC000623581528    0.0900
     31 H31       -11.2187    1.8416   60.0073 H       1  ZINC000623581528    0.1500
     32 H32       -10.7901    1.9971   62.4245 H       1  ZINC000623581528    0.1500
     33 H33       -10.6235    0.4980   64.5526 H       1  ZINC000623581528    0.0800
     34 H34        -9.4762   -0.8588   64.4470 H       1  ZINC000623581528    0.0800
     35 H35        -8.4790    1.8041   63.6980 H       1  ZINC000623581528    0.4000
     36 H36        -6.6213    2.4499   64.9555 H       1  ZINC000623581528    0.4000
     37 H37        -7.4532    2.3396   67.8822 H       1  ZINC000623581528    0.0900
     38 H38        -6.0884    1.6714   68.8381 H       1  ZINC000623581528    0.0900
     39 H39        -6.2660    4.2920   67.3198 H       1  ZINC000623581528    0.0800
     40 H40        -5.4034    3.9276   68.8448 H       1  ZINC000623581528    0.0800
     41 H41        -3.1254    4.9721   67.4745 H       1  ZINC000623581528    0.1300
     42 H42        -1.2693    4.1591   66.0802 H       1  ZINC000623581528    0.1400
     43 H43        -3.5459    0.6910   65.0820 H       1  ZINC000623581528    0.1400
     44 H44        -9.2381   -1.9758   62.4292 H       1  ZINC000623581528    0.1400
@<TRIPOS>BOND
     1     1     2    1
     2     1    28    1
     3     1    29    1
     4     1    30    1
     5     2    27    1
     6     2     3   am
     7     3     4    2
     8     3     5    1
     9     5     6    1
    10     6    27   ar
    11     6     7   ar
    12     7     8   ar
    13     7    31    1
    14     8     9   ar
    15     8    32    1
    16     9    10    1
    17     9    26   ar
    18    10    11    1
    19    10    33    1
    20    10    34    1
    21    11    12   am
    22    11    35    1
    23    12    13    2
    24    12    14   am
    25    14    15    1
    26    14    36    1
    27    15    16    1
    28    15    25    1
    29    15    17    1
    30    17    18    1
    31    17    37    1
    32    17    38    1
    33    18    19    1
    34    18    39    1
    35    18    40    1
    36    19    25   ar
    37    19    20   ar
    38    20    21   ar
    39    20    41    1
    40    21    22   ar
    41    21    42    1
    42    22    23    1
    43    22    24   ar
    44    24    25   ar
    45    24    43    1
    46    26    27   ar
    47    26    44    1
@<TRIPOS>SUBSTRUCTURE
     1 ZINC000623581528        1 TEMP              0 ****  ****    0 ROOT


##########                                Name:    ZINC000274225049
##########                DOCK_Rotatable_Bonds:                   6
##########                         Heavy_Atoms:                  25
##########                    Molecular_Weight:             380.895
##########                DOCK_Rotatable_Bonds:                   6
##########                       Formal_Charge:           0.0200006
##########                     HBond_Acceptors:                   7
##########                        HBond_Donors:                   2
##########                         Heavy_Atoms:                  25
##########                          Grid_Score:          -32.745911
##########                     Grid_vdw_energy:          -28.462015
##########                      Grid_es_energy:           -4.283895
##########           Internal_energy_repulsive:           14.985421

@<TRIPOS>MOLECULE
ZINC000274225049
 46 48 1 0 0
SMALL
USER_CHARGES


@<TRIPOS>ATOM
      1 C1        -12.0222   -0.5490   62.7330 C.3     1  ZINC000274225049   -0.1600
      2 C2        -10.5814   -0.6075   62.2217 C.3     1  ZINC000274225049    0.2000
      3 H3        -10.1802   -1.6087   62.3796 H       1  ZINC000274225049    0.1100
      4 N4         -9.7647    0.3662   62.9504 N.am    1  ZINC000274225049   -0.7400
      5 C5         -9.1914    0.0233   64.1210 C.2     1  ZINC000274225049    0.7100
      6 O6         -9.3509   -1.0947   64.5715 O.2     1  ZINC000274225049   -0.5800
      7 N7         -8.4413    0.9196   64.7921 N.am    1  ZINC000274225049   -0.7500
      8 C8         -7.8168    0.5464   66.0636 C.3     1  ZINC000274225049    0.1500
      9 C9         -6.5902    1.4278   66.3075 C.3     1  ZINC000274225049   -0.1000
     10 H10        -6.1354    1.1772   67.2658 H       1  ZINC000274225049    0.1000
     11 C11        -6.9957    2.9121   66.2886 C.3     1  ZINC000274225049   -0.1100
     12 C12        -5.7197    3.7720   66.1933 C.3     1  ZINC000274225049   -0.5900
     13 S13        -4.5001    2.7199   65.3264 S.o2    1  ZINC000274225049    2.3900
     14 O14        -4.2446    3.2597   64.0371 O.2     1  ZINC000274225049   -0.9300
     15 O15        -3.4175    2.4349   66.2017 O.2     1  ZINC000274225049   -0.9300
     16 C16        -5.5609    1.2335   65.1643 C.3     1  ZINC000274225049   -0.5900
     17 C17       -10.5570   -0.2829   60.7504 C.ar    1  ZINC000274225049   -0.0700
     18 C18       -10.5349   -1.3170   59.7995 C.ar    1  ZINC000274225049   -0.0300
     19 C19       -10.5350   -2.6672   60.1896 C.ar    1  ZINC000274225049   -0.1100
     20 C20       -10.5136   -3.6422   59.2406 C.ar    1  ZINC000274225049   -0.1100
     21 C21       -10.4915   -3.3230   57.8840 C.ar    1  ZINC000274225049   -0.1100
     22 C22       -10.4907   -2.0268   57.4691 C.ar    1  ZINC000274225049   -0.1000
     23 C23       -10.5124   -0.9924   58.4200 C.ar    1  ZINC000274225049   -0.0400
     24 C24       -10.5128    0.3585   58.0298 C.ar    1  ZINC000274225049   -0.0300
     25 Cl25      -10.4863    0.7807   56.3461 Cl      1  ZINC000274225049   -0.0600
     26 C26       -10.5346    1.3342   58.9805 C.ar    1  ZINC000274225049   -0.1000
     27 C27       -10.5618    1.0140   60.3360 C.ar    1  ZINC000274225049   -0.1000
     28 H28       -12.0400   -0.7839   63.7972 H       1  ZINC000274225049    0.0700
     29 H29       -12.4234    0.4522   62.5752 H       1  ZINC000274225049    0.0700
     30 H30       -12.6299   -1.2736   62.1909 H       1  ZINC000274225049    0.0800
     31 H31        -9.6365    1.2578   62.5904 H       1  ZINC000274225049    0.4000
     32 H32        -8.3151    1.8119   64.4333 H       1  ZINC000274225049    0.4000
     33 H33        -8.5317    0.6862   66.8745 H       1  ZINC000274225049    0.0800
     34 H34        -7.5110   -0.4992   66.0251 H       1  ZINC000274225049    0.0800
     35 H35        -7.6339    3.1066   65.4266 H       1  ZINC000274225049    0.0900
     36 H36        -7.5348    3.1563   67.2039 H       1  ZINC000274225049    0.0900
     37 H37        -5.9152    4.6771   65.6183 H       1  ZINC000274225049    0.1400
     38 H38        -5.3594    4.0263   67.1901 H       1  ZINC000274225049    0.1400
     39 H39        -4.9791    0.3244   65.3164 H       1  ZINC000274225049    0.1400
     40 H40        -6.0590    1.2175   64.1948 H       1  ZINC000274225049    0.1400
     41 H41       -10.5517   -2.9295   61.2372 H       1  ZINC000274225049    0.1300
     42 H42       -10.5134   -4.6791   59.5430 H       1  ZINC000274225049    0.1300
     43 H43       -10.4745   -4.1161   57.1511 H       1  ZINC000274225049    0.1300
     44 H44       -10.4730   -1.7945   56.4145 H       1  ZINC000274225049    0.1300
     45 H45       -10.5345    2.3711   58.6787 H       1  ZINC000274225049    0.1300
     46 H46       -10.5787    1.8065   61.0694 H       1  ZINC000274225049    0.1300
@<TRIPOS>BOND
     1     1     2    1
     2     1    28    1
     3     1    29    1
     4     1    30    1
     5     2     3    1
     6     2     4    1
     7     2    17    1
     8     4     5   am
     9     4    31    1
    10     5     6    2
    11     5     7   am
    12     7     8    1
    13     7    32    1
    14     8     9    1
    15     8    33    1
    16     8    34    1
    17     9    10    1
    18     9    16    1
    19     9    11    1
    20    11    12    1
    21    11    35    1
    22    11    36    1
    23    12    13    1
    24    12    37    1
    25    12    38    1
    26    13    14    2
    27    13    15    2
    28    13    16    1
    29    16    39    1
    30    16    40    1
    31    17    27   ar
    32    17    18   ar
    33    18    23   ar
    34    18    19   ar
    35    19    20   ar
    36    19    41    1
    37    20    21   ar
    38    20    42    1
    39    21    22   ar
    40    21    43    1
    41    22    23   ar
    42    22    44    1
    43    23    24   ar
    44    24    25    1
    45    24    26   ar
    46    26    27   ar
    47    26    45    1
    48    27    46    1
@<TRIPOS>SUBSTRUCTURE
     1 ZINC000274225049        1 TEMP              0 ****  ****    0 ROOT


##########                                Name:    ZINC000915315870
##########                DOCK_Rotatable_Bonds:                   4
##########                         Heavy_Atoms:                  24
##########                    Molecular_Weight:             357.381
##########                DOCK_Rotatable_Bonds:                   4
##########                       Formal_Charge:           0.0300002
##########                     HBond_Acceptors:                   9
##########                        HBond_Donors:                   1
##########                         Heavy_Atoms:                  24
##########                          Grid_Score:          -32.742805
##########                     Grid_vdw_energy:          -31.831472
##########                      Grid_es_energy:           -0.911333
##########           Internal_energy_repulsive:           35.107655

@<TRIPOS>MOLECULE
ZINC000915315870
 41 43 1 0 0
SMALL
USER_CHARGES


@<TRIPOS>ATOM
      1 C1        -14.0873   -4.6425   54.3712 C.3     1  ZINC000915315870    0.0300
      2 O2        -13.3496   -3.4393   54.5953 O.3     1  ZINC000915315870   -0.3200
      3 C3        -12.5409   -3.4055   55.6884 C.ar    1  ZINC000915315870    0.0800
      4 C4        -12.4743   -4.5010   56.5386 C.ar    1  ZINC000915315870    0.0900
      5 F5        -13.2125   -5.6028   56.2810 F       1  ZINC000915315870   -0.1100
      6 C6        -11.6506   -4.4635   57.6498 C.ar    1  ZINC000915315870   -0.0500
      7 C7        -10.8948   -3.3365   57.9142 C.ar    1  ZINC000915315870   -0.6300
      8 S8         -9.8477   -3.2924   59.3306 S.o2    1  ZINC000915315870    2.7000
      9 O9         -9.3252   -4.6049   59.4843 O.2     1  ZINC000915315870   -0.9400
     10 O10        -9.0272   -2.1410   59.1872 O.2     1  ZINC000915315870   -0.9400
     11 N11       -10.8144   -3.0168   60.6465 N.am    1  ZINC000915315870   -1.1100
     12 C12       -11.6205   -1.7957   60.7204 C.3     1  ZINC000915315870    0.2400
     13 H13       -11.4175   -1.1681   59.8528 H       1  ZINC000915315870    0.0900
     14 C14       -13.1100   -2.1603   60.7582 C.3     1  ZINC000915315870   -0.1400
     15 C15       -13.9385   -0.9144   61.0788 C.3     1  ZINC000915315870   -0.1100
     16 C16       -13.7384   -0.5229   62.5482 C.3     1  ZINC000915315870   -0.0400
     17 C17       -12.2553   -0.4625   62.8224 C.2     1  ZINC000915315870    0.0900
     18 N18       -11.6424    0.1022   63.8217 N.2     1  ZINC000915315870   -0.2900
     19 N19       -10.2631   -0.0948   63.6557 N.pl3   1  ZINC000915315870   -0.3800
     20 C20        -9.2107    0.3801   64.5573 C.3     1  ZINC000915315870    0.1000
     21 C21       -10.0762   -0.8003   62.5176 C.2     1  ZINC000915315870    0.0800
     22 C22       -11.2871   -1.0413   61.9838 C.2     1  ZINC000915315870   -0.2500
     23 C23       -10.9585   -2.2441   57.0692 C.ar    1  ZINC000915315870   -0.0500
     24 C24       -11.7759   -2.2775   55.9532 C.ar    1  ZINC000915315870    0.1000
     25 F25       -11.8377   -1.2097   55.1279 F       1  ZINC000915315870   -0.1100
     26 H26       -14.6903   -4.5362   53.4694 H       1  ZINC000915315870    0.1100
     27 H27       -13.3951   -5.4756   54.2492 H       1  ZINC000915315870    0.0600
     28 H28       -14.7390   -4.8333   55.2237 H       1  ZINC000915315870    0.0500
     29 H29       -11.5984   -5.3154   58.3116 H       1  ZINC000915315870    0.1700
     30 H30       -10.8471   -3.6638   61.3684 H       1  ZINC000915315870    0.4200
     31 H31       -13.4111   -2.5564   59.7883 H       1  ZINC000915315870    0.0900
     32 H32       -13.2790   -2.9156   61.5257 H       1  ZINC000915315870    0.0800
     33 H33       -13.6197   -0.0923   60.4380 H       1  ZINC000915315870    0.0700
     34 H34       -14.9930   -1.1244   60.9000 H       1  ZINC000915315870    0.0800
     35 H35       -14.1866    0.4534   62.7329 H       1  ZINC000915315870    0.0800
     36 H36       -14.2017   -1.2690   63.1938 H       1  ZINC000915315870    0.0900
     37 H37        -9.0109   -0.3786   65.3139 H       1  ZINC000915315870    0.0800
     38 H38        -8.3022    0.5717   63.9862 H       1  ZINC000915315870    0.0900
     39 H39        -9.5358    1.3003   65.0425 H       1  ZINC000915315870    0.0900
     40 H40        -9.1262   -1.1138   62.1104 H       1  ZINC000915315870    0.1700
     41 H41       -10.3667   -1.3652   57.2782 H       1  ZINC000915315870    0.1700
@<TRIPOS>BOND
     1     1     2    1
     2     1    26    1
     3     1    27    1
     4     1    28    1
     5     2     3    1
     6     3    24   ar
     7     3     4   ar
     8     4     5    1
     9     4     6   ar
    10     6     7   ar
    11     6    29    1
    12     7     8    1
    13     7    23   ar
    14     8     9    2
    15     8    10    2
    16     8    11   am
    17    11    12    1
    18    11    30    1
    19    12    13    1
    20    12    22    1
    21    12    14    1
    22    14    15    1
    23    14    31    1
    24    14    32    1
    25    15    16    1
    26    15    33    1
    27    15    34    1
    28    16    17    1
    29    16    35    1
    30    16    36    1
    31    17    22    1
    32    17    18    2
    33    18    19    1
    34    19    20    1
    35    19    21    1
    36    20    37    1
    37    20    38    1
    38    20    39    1
    39    21    22    2
    40    21    40    1
    41    23    24   ar
    42    23    41    1
    43    24    25    1
@<TRIPOS>SUBSTRUCTURE
     1 ZINC000915315870        1 TEMP              0 ****  ****    0 ROOT


##########                                Name:    ZINC000986832075
##########                DOCK_Rotatable_Bonds:                   7
##########                         Heavy_Atoms:                  25
##########                    Molecular_Weight:             347.433
##########                DOCK_Rotatable_Bonds:                   7
##########                       Formal_Charge:          -0.0200006
##########                     HBond_Acceptors:                   6
##########                        HBond_Donors:                   1
##########                         Heavy_Atoms:                  25
##########                          Grid_Score:          -32.742386
##########                     Grid_vdw_energy:          -32.309185
##########                      Grid_es_energy:           -0.433201
##########           Internal_energy_repulsive:           42.525723

@<TRIPOS>MOLECULE
ZINC000986832075
 51 53 1 0 0
SMALL
USER_CHARGES


@<TRIPOS>ATOM
      1 C1        -13.2871   -2.1602   52.2648 C.3     1  ZINC000986832075   -0.1700
      2 C2        -11.9998   -2.3826   53.0613 C.3     1  ZINC000986832075    0.1500
      3 H3        -11.4834   -3.2630   52.6788 H       1  ZINC000986832075    0.0900
      4 N4        -11.1324   -1.2099   52.9248 N.am    1  ZINC000986832075   -0.7200
      5 C5         -9.9158   -1.3339   52.3584 C.2     1  ZINC000986832075    0.5600
      6 O6         -9.5388   -2.4182   51.9595 O.2     1  ZINC000986832075   -0.5100
      7 C7         -9.0388   -0.1495   52.2221 C.ar    1  ZINC000986832075   -0.1300
      8 C8         -7.8465   -0.2175   51.4941 C.ar    1  ZINC000986832075   -0.1100
      9 C9         -7.0581    0.9116   51.3925 C.ar    1  ZINC000986832075    0.0900
     10 N10        -7.4143    2.0422   51.9695 N.ar    1  ZINC000986832075   -0.4400
     11 C11        -8.5280    2.1527   52.6648 C.ar    1  ZINC000986832075    0.0700
     12 C12        -9.3824    1.0729   52.8138 C.ar    1  ZINC000986832075    0.1100
     13 F13       -10.5227    1.1934   53.5281 F       1  ZINC000986832075   -0.1000
     14 C14       -12.3432   -2.5939   54.5372 C.3     1  ZINC000986832075   -0.1000
     15 C15       -11.7849   -3.9406   55.0028 C.3     1  ZINC000986832075   -0.1300
     16 C16       -12.1603   -4.1644   56.4712 C.3     1  ZINC000986832075    0.1100
     17 N17       -11.6961   -3.0140   57.2584 N.am    1  ZINC000986832075   -0.6100
     18 C18       -10.9137   -3.1936   58.3411 C.2     1  ZINC000986832075    0.5200
     19 O19       -10.5863   -4.3130   58.6736 O.2     1  ZINC000986832075   -0.5300
     20 C20       -10.4458   -2.0035   59.1383 C.3     1  ZINC000986832075   -0.0800
     21 H21        -9.9670   -1.2856   58.4724 H       1  ZINC000986832075    0.0900
     22 C22        -9.4433   -2.4624   60.1992 C.3     1  ZINC000986832075   -0.1400
     23 C23       -11.6453   -1.3438   59.8217 C.3     1  ZINC000986832075   -0.1400
     24 C24       -11.5901   -1.1799   61.3419 C.3     1  ZINC000986832075   -0.1800
     25 C25       -11.4350    0.0422   60.4345 C.3     1  ZINC000986832075   -0.1700
     26 C26       -12.1009   -1.6641   56.8429 C.3     1  ZINC000986832075    0.1000
     27 C27       -11.7261   -1.4684   55.3705 C.3     1  ZINC000986832075   -0.1300
     28 H28       -13.0424   -2.0098   51.2134 H       1  ZINC000986832075    0.0600
     29 H29       -13.9325   -3.0328   52.3665 H       1  ZINC000986832075    0.0700
     30 H30       -13.8036   -1.2799   52.6474 H       1  ZINC000986832075    0.0600
     31 H31       -11.4338   -0.3441   53.2420 H       1  ZINC000986832075    0.4000
     32 H32        -7.5468   -1.1397   51.0187 H       1  ZINC000986832075    0.1500
     33 H33        -6.1359    0.8678   50.8321 H       1  ZINC000986832075    0.1700
     34 H34        -8.7800    3.0987   53.1209 H       1  ZINC000986832075    0.1800
     35 H35       -13.4260   -2.5869   54.6628 H       1  ZINC000986832075    0.0800
     36 H36       -12.2070   -4.7398   54.3935 H       1  ZINC000986832075    0.0700
     37 H37       -10.6997   -3.9393   54.9009 H       1  ZINC000986832075    0.0800
     38 H38       -13.2426   -4.2563   56.5616 H       1  ZINC000986832075    0.0700
     39 H39       -11.6825   -5.0736   56.8360 H       1  ZINC000986832075    0.0900
     40 H40        -9.8936   -3.2448   60.8101 H       1  ZINC000986832075    0.0600
     41 H41        -8.5501   -2.8517   59.7107 H       1  ZINC000986832075    0.0600
     42 H42        -9.1723   -1.6176   60.8325 H       1  ZINC000986832075    0.0700
     43 H43       -12.6161   -1.5536   59.3727 H       1  ZINC000986832075    0.1100
     44 H44       -12.5248   -1.2820   61.8934 H       1  ZINC000986832075    0.1000
     45 H45       -10.6994   -1.5420   61.8552 H       1  ZINC000986832075    0.0900
     46 H46       -10.4421    0.4841   60.3509 H       1  ZINC000986832075    0.0900
     47 H47       -12.2676    0.7442   60.3891 H       1  ZINC000986832075    0.1000
     48 H48       -13.1783   -1.5521   56.9637 H       1  ZINC000986832075    0.0700
     49 H49       -11.5837   -0.9235   57.4531 H       1  ZINC000986832075    0.0900
     50 H50       -10.6414   -1.4904   55.2651 H       1  ZINC000986832075    0.0800
     51 H51       -12.1065   -0.5078   55.0229 H       1  ZINC000986832075    0.0800
@<TRIPOS>BOND
     1     1     2    1
     2     1    28    1
     3     1    29    1
     4     1    30    1
     5     2     3    1
     6     2     4    1
     7     2    14    1
     8     4     5   am
     9     4    31    1
    10     5     6    2
    11     5     7    1
    12     7    12   ar
    13     7     8   ar
    14     8     9   ar
    15     8    32    1
    16     9    10   ar
    17     9    33    1
    18    10    11   ar
    19    11    12   ar
    20    11    34    1
    21    12    13    1
    22    14    27    1
    23    14    15    1
    24    14    35    1
    25    15    16    1
    26    15    36    1
    27    15    37    1
    28    16    17    1
    29    16    38    1
    30    16    39    1
    31    17    18   am
    32    17    26    1
    33    18    19    2
    34    18    20    1
    35    20    21    1
    36    20    22    1
    37    20    23    1
    38    22    40    1
    39    22    41    1
    40    22    42    1
    41    23    25    1
    42    23    24    1
    43    23    43    1
    44    24    25    1
    45    24    44    1
    46    24    45    1
    47    25    46    1
    48    25    47    1
    49    26    27    1
    50    26    48    1
    51    26    49    1
    52    27    50    1
    53    27    51    1
@<TRIPOS>SUBSTRUCTURE
     1 ZINC000986832075        1 TEMP              0 ****  ****    0 ROOT


##########                                Name:    ZINC000053543817
##########                DOCK_Rotatable_Bonds:                   7
##########                         Heavy_Atoms:                  25
##########                    Molecular_Weight:             350.458
##########                DOCK_Rotatable_Bonds:                   7
##########                       Formal_Charge:           0.0199998
##########                     HBond_Acceptors:                   6
##########                        HBond_Donors:                   2
##########                         Heavy_Atoms:                  25
##########                          Grid_Score:          -32.734261
##########                     Grid_vdw_energy:          -33.643082
##########                      Grid_es_energy:            0.908822
##########           Internal_energy_repulsive:           32.743328

@<TRIPOS>MOLECULE
ZINC000053543817
 55 56 1 0 0
SMALL
USER_CHARGES


@<TRIPOS>ATOM
      1 C1        -11.7514   -3.1256   53.8667 C.3     1  ZINC000053543817   -0.0700
      2 C2        -11.3388   -2.8214   55.2839 C.2     1  ZINC000053543817   -0.0200
      3 C3        -11.0831   -1.5963   55.7839 C.2     1  ZINC000053543817   -0.1800
      4 C4        -10.7365   -1.7771   57.1349 C.2     1  ZINC000053543817   -0.1900
      5 C5        -10.7996   -3.1004   57.3884 C.2     1  ZINC000053543817    0.0000
      6 C6        -10.4990   -3.7151   58.7337 C.3     1  ZINC000053543817   -0.0300
      7 C7        -10.5394   -2.6071   59.7928 C.3     1  ZINC000053543817   -0.0500
      8 C8        -11.9830   -2.1382   59.9852 C.3     1  ZINC000053543817   -0.1500
      9 C9         -9.9984   -3.1486   61.1177 C.3     1  ZINC000053543817   -0.1400
     10 C10        -9.6770   -1.4281   59.3339 C.3     1  ZINC000053543817   -0.1200
     11 C11       -10.3569   -0.7299   58.1491 C.3     1  ZINC000053543817    0.2200
     12 H12       -11.2512   -0.2104   58.4932 H       1  ZINC000053543817    0.1000
     13 N13        -9.4305    0.2305   57.5444 N.am    1  ZINC000053543817   -0.7100
     14 C14        -9.5107    1.5373   57.8643 C.2     1  ZINC000053543817    0.5100
     15 O15       -10.3508    1.9183   58.6516 O.2     1  ZINC000053543817   -0.5300
     16 C16        -8.5565    2.5248   57.2436 C.3     1  ZINC000053543817    0.1400
     17 H17        -8.4342    3.3794   57.9090 H       1  ZINC000053543817    0.1200
     18 C18        -9.1158    2.9997   55.9011 C.3     1  ZINC000053543817   -0.1600
     19 N19        -7.2575    1.8814   57.0314 N.am    1  ZINC000053543817   -0.7000
     20 C20        -6.1262    2.6116   57.0906 C.2     1  ZINC000053543817    0.6600
     21 O21        -6.1837    3.8037   57.3186 O.2     1  ZINC000053543817   -0.5700
     22 O22        -4.9324    2.0200   56.8972 O.3     1  ZINC000053543817   -0.3600
     23 C23        -3.7497    2.8184   57.1659 C.3     1  ZINC000053543817    0.1400
     24 C24        -3.6976    3.9966   56.1912 C.3     1  ZINC000053543817   -0.1800
     25 C25        -3.8055    3.3457   58.6010 C.3     1  ZINC000053543817   -0.1400
     26 C26        -2.4997    1.9541   56.9883 C.3     1  ZINC000053543817   -0.1800
     27 O27       -11.1693   -3.7263   56.2647 O.3     1  ZINC000053543817   -0.1700
     28 H28       -11.8935   -4.2003   53.7524 H       1  ZINC000053543817    0.0800
     29 H29       -12.6848   -2.6098   53.6413 H       1  ZINC000053543817    0.0800
     30 H30       -10.9744   -2.7869   53.1814 H       1  ZINC000053543817    0.0800
     31 H31       -11.1340   -0.6585   55.2508 H       1  ZINC000053543817    0.1400
     32 H32       -11.2482   -4.4720   58.9663 H       1  ZINC000053543817    0.0900
     33 H33        -9.5082   -4.1692   58.7159 H       1  ZINC000053543817    0.0900
     34 H34       -12.5968   -2.9771   60.3132 H       1  ZINC000053543817    0.0600
     35 H35       -12.0119   -1.3506   60.7382 H       1  ZINC000053543817    0.0600
     36 H36       -12.3687   -1.7530   59.0414 H       1  ZINC000053543817    0.0600
     37 H37        -8.9702   -3.4832   60.9808 H       1  ZINC000053543817    0.0600
     38 H38       -10.0270   -2.3611   61.8708 H       1  ZINC000053543817    0.0600
     39 H39       -10.6129   -3.9872   61.4454 H       1  ZINC000053543817    0.0600
     40 H40        -9.5615   -0.7208   60.1551 H       1  ZINC000053543817    0.0800
     41 H41        -8.6965   -1.7926   59.0273 H       1  ZINC000053543817    0.0700
     42 H42        -8.7594   -0.0742   56.9138 H       1  ZINC000053543817    0.4000
     43 H43       -10.0823    3.4783   56.0589 H       1  ZINC000053543817    0.0800
     44 H44        -8.4257    3.7139   55.4520 H       1  ZINC000053543817    0.0800
     45 H45        -9.2380    2.1450   55.2357 H       1  ZINC000053543817    0.0700
     46 H46        -7.2117    0.9300   56.8483 H       1  ZINC000053543817    0.4200
     47 H47        -4.5881    4.6124   56.3177 H       1  ZINC000053543817    0.0600
     48 H48        -2.8097    4.5960   56.3928 H       1  ZINC000053543817    0.0700
     49 H49        -3.6578    3.6209   55.1687 H       1  ZINC000053543817    0.0900
     50 H50        -3.8426    2.5063   59.2953 H       1  ZINC000053543817    0.0700
     51 H51        -2.9176    3.9451   58.8026 H       1  ZINC000053543817    0.0800
     52 H52        -4.6960    3.9615   58.7274 H       1  ZINC000053543817    0.0700
     53 H53        -2.4600    1.5783   55.9659 H       1  ZINC000053543817    0.0900
     54 H54        -1.6119    2.5534   57.1900 H       1  ZINC000053543817    0.0700
     55 H55        -2.5369    1.1147   57.6826 H       1  ZINC000053543817    0.0600
@<TRIPOS>BOND
     1     1     2    1
     2     1    28    1
     3     1    29    1
     4     1    30    1
     5     2    27    1
     6     2     3    2
     7     3     4    1
     8     3    31    1
     9     4    11    1
    10     4     5    2
    11     5     6    1
    12     5    27    1
    13     6     7    1
    14     6    32    1
    15     6    33    1
    16     7     8    1
    17     7     9    1
    18     7    10    1
    19     8    34    1
    20     8    35    1
    21     8    36    1
    22     9    37    1
    23     9    38    1
    24     9    39    1
    25    10    11    1
    26    10    40    1
    27    10    41    1
    28    11    12    1
    29    11    13    1
    30    13    14   am
    31    13    42    1
    32    14    15    2
    33    14    16    1
    34    16    17    1
    35    16    18    1
    36    16    19    1
    37    18    43    1
    38    18    44    1
    39    18    45    1
    40    19    20   am
    41    19    46    1
    42    20    21    2
    43    20    22    1
    44    22    23    1
    45    23    24    1
    46    23    25    1
    47    23    26    1
    48    24    47    1
    49    24    48    1
    50    24    49    1
    51    25    50    1
    52    25    51    1
    53    25    52    1
    54    26    53    1
    55    26    54    1
    56    26    55    1
@<TRIPOS>SUBSTRUCTURE
     1 ZINC000053543817        1 TEMP              0 ****  ****    0 ROOT


##########                                Name:    ZINC001341052241
##########                DOCK_Rotatable_Bonds:                   7
##########                         Heavy_Atoms:                  24
##########                    Molecular_Weight:             336.478
##########                DOCK_Rotatable_Bonds:                   7
##########                       Formal_Charge:         5.96046e-08
##########                     HBond_Acceptors:                   6
##########                        HBond_Donors:                   0
##########                         Heavy_Atoms:                  24
##########                          Grid_Score:          -32.727150
##########                     Grid_vdw_energy:          -33.160141
##########                      Grid_es_energy:            0.432990
##########           Internal_energy_repulsive:           15.070614

@<TRIPOS>MOLECULE
ZINC001341052241
 56 58 1 0 0
SMALL
USER_CHARGES


@<TRIPOS>ATOM
      1 C1        -12.6791    0.0627   62.3847 C.3     1  ZINC001341052241   -0.1700
      2 C2        -11.3489    0.5233   61.7852 C.3     1  ZINC001341052241    0.1100
      3 N3        -10.3536   -0.5420   61.9290 N.pl3   1  ZINC001341052241   -0.4500
      4 C4         -9.4735   -0.7157   62.9609 C.2     1  ZINC001341052241    0.1800
      5 C5         -9.3421    0.1606   64.1799 C.3     1  ZINC001341052241    0.1500
      6 O6         -8.9471   -0.6358   65.2987 O.3     1  ZINC001341052241   -0.3700
      7 C7         -8.6846    0.1173   66.4845 C.3     1  ZINC001341052241    0.0900
      8 C8         -9.9468    0.8781   66.8952 C.3     1  ZINC001341052241   -0.1400
      9 C9         -9.6658    1.6843   68.1648 C.3     1  ZINC001341052241   -0.1200
     10 C10        -8.5348    2.6795   67.8972 C.3     1  ZINC001341052241   -0.1200
     11 C11        -7.2726    1.9185   67.4864 C.3     1  ZINC001341052241   -0.1200
     12 C12        -7.5536    1.1123   66.2168 C.3     1  ZINC001341052241   -0.1200
     13 N13        -8.7699   -1.7797   62.6953 N.2     1  ZINC001341052241   -0.2600
     14 N14        -9.1466   -2.2894   61.5772 N.2     1  ZINC001341052241   -0.3100
     15 C15       -10.1122   -1.5665   61.0606 C.2     1  ZINC001341052241    0.3500
     16 N16       -10.7671   -1.8023   59.8624 N.3     1  ZINC001341052241   -0.4600
     17 C17       -10.0377   -1.2036   58.7372 C.3     1  ZINC001341052241    0.0700
     18 C18       -10.8595   -1.3568   57.4554 C.3     1  ZINC001341052241   -0.1100
     19 C19       -11.1116   -2.8438   57.1912 C.3     1  ZINC001341052241   -0.0900
     20 C20       -11.9843   -3.0007   55.9443 C.3     1  ZINC001341052241    0.0700
     21 O21       -11.2498   -2.5807   54.7927 O.3     1  ZINC001341052241   -0.3900
     22 C22       -11.9972   -2.6324   53.5759 C.3     1  ZINC001341052241    0.0300
     23 C23       -11.8292   -3.4541   58.3982 C.3     1  ZINC001341052241   -0.1100
     24 C24       -10.9792   -3.2402   59.6527 C.3     1  ZINC001341052241    0.0700
     25 H25       -13.0185   -0.8353   61.8687 H       1  ZINC001341052241    0.0600
     26 H26       -12.5440   -0.1560   63.4439 H       1  ZINC001341052241    0.0700
     27 H27       -13.4225    0.8515   62.2685 H       1  ZINC001341052241    0.0800
     28 H28       -11.0043    1.4155   62.3081 H       1  ZINC001341052241    0.0900
     29 H29       -11.4864    0.7519   60.7284 H       1  ZINC001341052241    0.1000
     30 H30        -8.5900    0.9279   63.9966 H       1  ZINC001341052241    0.0900
     31 H31       -10.3006    0.6345   64.3916 H       1  ZINC001341052241    0.0700
     32 H32        -8.3908   -0.5594   67.2870 H       1  ZINC001341052241    0.0600
     33 H33       -10.2405    1.5547   66.0927 H       1  ZINC001341052241    0.0700
     34 H34       -10.7525    0.1692   67.0859 H       1  ZINC001341052241    0.0700
     35 H35        -9.3721    1.0078   68.9674 H       1  ZINC001341052241    0.0600
     36 H36       -10.5651    2.2265   68.4574 H       1  ZINC001341052241    0.0700
     37 H37        -8.3347    3.2539   68.8017 H       1  ZINC001341052241    0.0600
     38 H38        -8.8285    3.3560   67.0946 H       1  ZINC001341052241    0.0600
     39 H39        -6.9789    1.2420   68.2890 H       1  ZINC001341052241    0.0600
     40 H40        -6.4669    2.6275   67.2958 H       1  ZINC001341052241    0.0700
     41 H41        -6.6544    0.5702   65.9242 H       1  ZINC001341052241    0.0700
     42 H42        -7.8473    1.7889   65.4143 H       1  ZINC001341052241    0.0700
     43 H43        -9.0789   -1.7079   58.6164 H       1  ZINC001341052241    0.0600
     44 H44        -9.8687   -0.1453   58.9359 H       1  ZINC001341052241    0.0800
     45 H45       -10.3110   -0.9262   56.6178 H       1  ZINC001341052241    0.0800
     46 H46       -11.8129   -0.8409   57.5705 H       1  ZINC001341052241    0.0800
     47 H47       -10.1601   -3.3526   57.0362 H       1  ZINC001341052241    0.0800
     48 H48       -12.8794   -2.3874   56.0478 H       1  ZINC001341052241    0.0500
     49 H49       -12.2714   -4.0461   55.8308 H       1  ZINC001341052241    0.0500
     50 H50       -12.3239   -3.6560   53.3933 H       1  ZINC001341052241    0.0400
     51 H51       -11.3696   -2.2984   52.7496 H       1  ZINC001341052241    0.0900
     52 H52       -12.8681   -1.9819   53.6566 H       1  ZINC001341052241    0.0400
     53 H53       -12.7978   -2.9713   58.5281 H       1  ZINC001341052241    0.0700
     54 H54       -11.9734   -4.5220   58.2340 H       1  ZINC001341052241    0.0800
     55 H55       -10.0161   -3.7350   59.5276 H       1  ZINC001341052241    0.0600
     56 H56       -11.4941   -3.6611   60.5163 H       1  ZINC001341052241    0.0800
@<TRIPOS>BOND
     1     1     2    1
     2     1    25    1
     3     1    26    1
     4     1    27    1
     5     2     3    1
     6     2    28    1
     7     2    29    1
     8     3    15    1
     9     3     4    1
    10     4     5    1
    11     4    13    2
    12     5     6    1
    13     5    30    1
    14     5    31    1
    15     6     7    1
    16     7    12    1
    17     7     8    1
    18     7    32    1
    19     8     9    1
    20     8    33    1
    21     8    34    1
    22     9    10    1
    23     9    35    1
    24     9    36    1
    25    10    11    1
    26    10    37    1
    27    10    38    1
    28    11    12    1
    29    11    39    1
    30    11    40    1
    31    12    41    1
    32    12    42    1
    33    13    14    1
    34    14    15    2
    35    15    16    1
    36    16    24    1
    37    16    17    1
    38    17    18    1
    39    17    43    1
    40    17    44    1
    41    18    19    1
    42    18    45    1
    43    18    46    1
    44    19    20    1
    45    19    23    1
    46    19    47    1
    47    20    21    1
    48    20    48    1
    49    20    49    1
    50    21    22    1
    51    22    50    1
    52    22    51    1
    53    22    52    1
    54    23    24    1
    55    23    53    1
    56    23    54    1
    57    24    55    1
    58    24    56    1
@<TRIPOS>SUBSTRUCTURE
     1 ZINC001341052241        1 TEMP              0 ****  ****    0 ROOT


##########                                Name:    ZINC001079355651
##########                DOCK_Rotatable_Bonds:                   5
##########                         Heavy_Atoms:                  25
##########                    Molecular_Weight:             353.851
##########                DOCK_Rotatable_Bonds:                   5
##########                       Formal_Charge:           0.0199997
##########                     HBond_Acceptors:                   5
##########                        HBond_Donors:                   1
##########                         Heavy_Atoms:                  25
##########                          Grid_Score:          -32.725159
##########                     Grid_vdw_energy:          -32.363010
##########                      Grid_es_energy:           -0.362148
##########           Internal_energy_repulsive:            6.147050

@<TRIPOS>MOLECULE
ZINC001079355651
 45 47 1 0 0
SMALL
USER_CHARGES


@<TRIPOS>ATOM
      1 C1        -14.9622   -1.4678   52.3625 C.3     1  ZINC001079355651   -0.1500
      2 C2        -13.7047   -2.2860   52.6633 C.3     1  ZINC001079355651   -0.1000
      3 H3        -13.2137   -2.5792   51.7355 H       1  ZINC001079355651    0.0900
      4 C4        -14.0642   -3.5344   53.4975 C.3     1  ZINC001079355651    0.0300
      5 N5        -12.9293   -3.6924   54.4429 N.3     1  ZINC001079355651   -0.5100
      6 C6        -13.3217   -4.4987   55.6064 C.3     1  ZINC001079355651    0.1600
      7 C7        -12.5223   -4.0955   56.7749 C.1     1  ZINC001079355651   -0.1400
      8 C8        -11.8849   -3.7739   57.7067 C.1     1  ZINC001079355651   -0.1300
      9 C9        -11.1073   -3.3817   58.8435 C.ar    1  ZINC001079355651    0.0300
     10 C10        -9.8509   -3.9479   59.0618 C.ar    1  ZINC001079355651   -0.0900
     11 C11        -9.1060   -3.5661   60.1590 C.ar    1  ZINC001079355651   -0.1000
     12 C12        -9.6019   -2.6242   61.0418 C.ar    1  ZINC001079355651   -0.1000
     13 C13       -10.8483   -2.0585   60.8316 C.ar    1  ZINC001079355651   -0.0300
     14 Cl14      -11.4628   -0.8773   61.9457 Cl      1  ZINC001079355651   -0.0600
     15 C15       -11.6006   -2.4276   59.7342 C.ar    1  ZINC001079355651   -0.0900
     16 C16       -12.5945   -2.3025   54.8468 C.3     1  ZINC001079355651    0.0200
     17 C17       -12.7367   -1.4746   53.5488 C.3     1  ZINC001079355651    0.1500
     18 H18       -13.1577   -0.4938   53.7696 H       1  ZINC001079355651    0.1000
     19 N19       -11.4355   -1.3323   52.8908 N.am    1  ZINC001079355651   -0.7100
     20 C20       -10.7293   -0.1933   53.0333 C.2     1  ZINC001079355651    0.5600
     21 O21       -11.1712    0.7151   53.7087 O.2     1  ZINC001079355651   -0.5300
     22 C22        -9.4142   -0.0488   52.3665 C.ar    1  ZINC001079355651   -0.0900
     23 C23        -8.7114    1.1588   52.4178 C.ar    1  ZINC001079355651   -0.1400
     24 C24        -7.4884    1.2495   51.7819 C.ar    1  ZINC001079355651    0.1000
     25 N25        -6.9841    0.2181   51.1342 N.ar    1  ZINC001079355651   -0.4700
     26 C26        -7.6135   -0.9378   51.0614 C.ar    1  ZINC001079355651    0.1000
     27 C27        -8.8389   -1.1180   51.6733 C.ar    1  ZINC001079355651   -0.1200
     28 H28       -14.6865   -0.5652   51.8171 H       1  ZINC001079355651    0.0600
     29 H29       -15.6467   -2.0628   51.7580 H       1  ZINC001079355651    0.0700
     30 H30       -15.4490   -1.1926   53.2981 H       1  ZINC001079355651    0.0600
     31 H31       -14.9938   -3.3722   54.0431 H       1  ZINC001079355651    0.0600
     32 H32       -14.1479   -4.4103   52.8540 H       1  ZINC001079355651    0.0900
     33 H33       -14.3793   -4.3409   55.8177 H       1  ZINC001079355651    0.0700
     34 H34       -13.1471   -5.5533   55.3932 H       1  ZINC001079355651    0.1100
     35 H35        -9.4623   -4.6839   58.3736 H       1  ZINC001079355651    0.1300
     36 H36        -8.1336   -4.0042   60.3288 H       1  ZINC001079355651    0.1400
     37 H37        -9.0150   -2.3289   61.8990 H       1  ZINC001079355651    0.1400
     38 H38       -12.5725   -1.9859   59.5709 H       1  ZINC001079355651    0.1400
     39 H39       -13.2940   -1.9476   55.6036 H       1  ZINC001079355651    0.0600
     40 H40       -11.5714   -2.2509   55.2194 H       1  ZINC001079355651    0.0900
     41 H41       -11.0822   -2.0580   52.3527 H       1  ZINC001079355651    0.4000
     42 H42        -9.1186    2.0080   52.9464 H       1  ZINC001079355651    0.1400
     43 H43        -6.9380    2.1781   51.8156 H       1  ZINC001079355651    0.1600
     44 H44        -7.1631   -1.7563   50.5195 H       1  ZINC001079355651    0.1700
     45 H45        -9.3489   -2.0679   51.6095 H       1  ZINC001079355651    0.1500
@<TRIPOS>BOND
     1     1     2    1
     2     1    28    1
     3     1    29    1
     4     1    30    1
     5     2     3    1
     6     2    17    1
     7     2     4    1
     8     4     5    1
     9     4    31    1
    10     4    32    1
    11     5     6    1
    12     5    16    1
    13     6     7    1
    14     6    33    1
    15     6    34    1
    16     7     8    3
    17     8     9    1
    18     9    15   ar
    19     9    10   ar
    20    10    11   ar
    21    10    35    1
    22    11    12   ar
    23    11    36    1
    24    12    13   ar
    25    12    37    1
    26    13    14    1
    27    13    15   ar
    28    15    38    1
    29    16    17    1
    30    16    39    1
    31    16    40    1
    32    17    18    1
    33    17    19    1
    34    19    20   am
    35    19    41    1
    36    20    21    2
    37    20    22    1
    38    22    27   ar
    39    22    23   ar
    40    23    24   ar
    41    23    42    1
    42    24    25   ar
    43    24    43    1
    44    25    26   ar
    45    26    27   ar
    46    26    44    1
    47    27    45    1
@<TRIPOS>SUBSTRUCTURE
     1 ZINC001079355651        1 TEMP              0 ****  ****    0 ROOT


##########                                Name:    ZINC000774689801
##########                DOCK_Rotatable_Bonds:                   4
##########                         Heavy_Atoms:                  24
##########                    Molecular_Weight:             347.395
##########                DOCK_Rotatable_Bonds:                   4
##########                       Formal_Charge:         -0.00999961
##########                     HBond_Acceptors:                   8
##########                        HBond_Donors:                   1
##########                         Heavy_Atoms:                  24
##########                          Grid_Score:          -32.724831
##########                     Grid_vdw_energy:          -32.697536
##########                      Grid_es_energy:           -0.027294
##########           Internal_energy_repulsive:            3.790436

@<TRIPOS>MOLECULE
ZINC000774689801
 41 44 1 0 0
SMALL
USER_CHARGES


@<TRIPOS>ATOM
      1 C1         -9.7020   -3.4280   59.3103 C.3     1  ZINC000774689801   -0.1200
      2 C2        -10.8644   -2.4996   59.5512 C.2     1  ZINC000774689801    0.0600
      3 C3        -11.9087   -2.4259   58.7105 C.2     1  ZINC000774689801   -0.2800
      4 C4        -12.0513   -3.2152   57.4853 C.2     1  ZINC000774689801    0.5500
      5 O5        -12.0745   -4.4299   57.5437 O.2     1  ZINC000774689801   -0.4900
      6 O6        -12.1570   -2.5952   56.2919 O.3     1  ZINC000774689801   -0.3400
      7 C7        -11.8554   -3.3836   55.1105 C.3     1  ZINC000774689801    0.0900
      8 C8        -12.1237   -2.5476   53.8574 C.3     1  ZINC000774689801   -0.1300
      9 H9        -13.1959   -2.4486   53.6884 H       1  ZINC000774689801    0.1200
     10 C10       -11.4651   -1.1544   53.9850 C.3     1  ZINC000774689801   -0.1300
     11 C11       -10.9995   -0.8921   52.5355 C.3     1  ZINC000774689801    0.1000
     12 N12       -10.8243   -2.2195   51.9343 N.am    1  ZINC000774689801   -0.7400
     13 C13       -11.4529   -3.1694   52.6524 C.2     1  ZINC000774689801    0.5200
     14 O14       -11.4740   -4.3499   52.3749 O.2     1  ZINC000774689801   -0.5100
     15 S15       -13.0796   -1.2515   59.2859 S.3     1  ZINC000774689801    0.3000
     16 C16       -12.0897   -0.8818   60.6929 C.2     1  ZINC000774689801    0.1000
     17 C17       -10.9304   -1.6639   60.6645 C.2     1  ZINC000774689801   -0.2500
     18 C18        -9.9773   -1.4846   61.7762 C.2     1  ZINC000774689801    0.5700
     19 O19        -8.9447   -2.1294   61.8202 O.2     1  ZINC000774689801   -0.5000
     20 N20       -10.2742   -0.5882   62.7462 N.am    1  ZINC000774689801   -0.5500
     21 C21        -9.4965   -0.2367   63.9469 C.3     1  ZINC000774689801    0.0900
     22 C22       -10.0679    1.1118   64.4312 C.3     1  ZINC000774689801   -0.1300
     23 C23       -11.5108    1.0579   63.8846 C.3     1  ZINC000774689801   -0.0800
     24 C24       -11.4255    0.1278   62.6858 C.2     1  ZINC000774689801    0.4200
     25 N25       -12.2812   -0.0243   61.7103 N.2     1  ZINC000774689801   -0.5100
     26 H26        -9.9033   -4.3914   59.7789 H       1  ZINC000774689801    0.0800
     27 H27        -9.5643   -3.5672   58.2381 H       1  ZINC000774689801    0.1000
     28 H28        -8.7977   -2.9970   59.7399 H       1  ZINC000774689801    0.0800
     29 H29       -10.8072   -3.6820   55.1306 H       1  ZINC000774689801    0.0900
     30 H30       -12.4861   -4.2725   55.0961 H       1  ZINC000774689801    0.0800
     31 H31       -12.1921   -0.4069   54.3025 H       1  ZINC000774689801    0.1000
     32 H32       -10.6161   -1.1854   54.6678 H       1  ZINC000774689801    0.0900
     33 H33       -11.7581   -0.3289   51.9918 H       1  ZINC000774689801    0.0800
     34 H34       -10.0539   -0.3502   52.5353 H       1  ZINC000774689801    0.0800
     35 H35       -10.3215   -2.3906   51.1226 H       1  ZINC000774689801    0.4100
     36 H36        -9.6257   -0.9985   64.7157 H       1  ZINC000774689801    0.1000
     37 H37        -8.4415   -0.1301   63.6946 H       1  ZINC000774689801    0.1000
     38 H38       -10.0652    1.1681   65.5197 H       1  ZINC000774689801    0.1100
     39 H39        -9.5175    1.9468   63.9975 H       1  ZINC000774689801    0.0900
     40 H40       -12.1878    0.6504   64.6354 H       1  ZINC000774689801    0.1200
     41 H41       -11.8379    2.0503   63.5741 H       1  ZINC000774689801    0.1200
@<TRIPOS>BOND
     1     1     2    1
     2     1    26    1
     3     1    27    1
     4     1    28    1
     5     2    17    1
     6     2     3    2
     7     3     4    1
     8     3    15    1
     9     4     5    2
    10     4     6    1
    11     6     7    1
    12     7     8    1
    13     7    29    1
    14     7    30    1
    15     8     9    1
    16     8    13    1
    17     8    10    1
    18    10    11    1
    19    10    31    1
    20    10    32    1
    21    11    12    1
    22    11    33    1
    23    11    34    1
    24    12    13   am
    25    12    35    1
    26    13    14    2
    27    15    16    1
    28    16    25    1
    29    16    17    2
    30    17    18    1
    31    18    19    2
    32    18    20   am
    33    20    24    1
    34    20    21    1
    35    21    22    1
    36    21    36    1
    37    21    37    1
    38    22    23    1
    39    22    38    1
    40    22    39    1
    41    23    24    1
    42    23    40    1
    43    23    41    1
    44    24    25    2
@<TRIPOS>SUBSTRUCTURE
     1 ZINC000774689801        1 TEMP              0 ****  ****    0 ROOT


##########                                Name:    ZINC000546115054
##########                DOCK_Rotatable_Bonds:                  10
##########                         Heavy_Atoms:                  26
##########                    Molecular_Weight:             363.457
##########                DOCK_Rotatable_Bonds:                  10
##########                       Formal_Charge:        -4.39584e-07
##########                     HBond_Acceptors:                   7
##########                        HBond_Donors:                   2
##########                         Heavy_Atoms:                  26
##########                          Grid_Score:          -32.715595
##########                     Grid_vdw_energy:          -32.593060
##########                      Grid_es_energy:           -0.122537
##########           Internal_energy_repulsive:           22.639307

@<TRIPOS>MOLECULE
ZINC000546115054
 55 56 1 0 0
SMALL
USER_CHARGES


@<TRIPOS>ATOM
      1 C1        -11.0740    2.4945   58.2590 C.3     1  ZINC000546115054   -0.1500
      2 C2        -11.5300    1.1444   58.8162 C.3     1  ZINC000546115054    0.0600
      3 O3        -10.4783    0.1883   58.6680 O.3     1  ZINC000546115054   -0.3700
      4 C4        -10.6350   -0.9783   59.4782 C.3     1  ZINC000546115054    0.0500
      5 H5        -11.5582   -0.9016   60.0525 H       1  ZINC000546115054    0.0700
      6 C6         -9.4460   -1.1004   60.4349 C.3     1  ZINC000546115054    0.0400
      7 O7         -9.5757   -2.2980   61.2035 O.3     1  ZINC000546115054   -0.3700
      8 C8         -9.5844   -3.4946   60.4223 C.3     1  ZINC000546115054    0.0600
      9 C9        -10.7789   -3.4687   59.4651 C.3     1  ZINC000546115054   -0.1600
     10 C10       -10.6909   -2.2197   58.5826 C.3     1  ZINC000546115054    0.1700
     11 H11        -9.7895   -2.2677   57.9716 H       1  ZINC000546115054    0.1000
     12 N12       -11.8686   -2.1493   57.7141 N.am    1  ZINC000546115054   -0.7300
     13 C13       -11.9919   -2.9998   56.6758 C.2     1  ZINC000546115054    0.7200
     14 O14       -11.1251   -3.8244   56.4591 O.2     1  ZINC000546115054   -0.5900
     15 N15       -13.0761   -2.9361   55.8777 N.am    1  ZINC000546115054   -0.7200
     16 C16       -13.2093   -3.8593   54.7480 C.3     1  ZINC000546115054    0.1600
     17 H17       -12.3275   -4.4978   54.6947 H       1  ZINC000546115054    0.1200
     18 C18       -14.4553   -4.7259   54.9418 C.3     1  ZINC000546115054   -0.1000
     19 C19       -15.2521   -4.2058   56.1104 C.ar    1  ZINC000546115054   -0.0800
     20 C20       -16.1912   -3.2097   55.9181 C.ar    1  ZINC000546115054   -0.1100
     21 C21       -16.9220   -2.7327   56.9901 C.ar    1  ZINC000546115054   -0.1200
     22 C22       -16.7141   -3.2519   58.2542 C.ar    1  ZINC000546115054   -0.1200
     23 C23       -15.7758   -4.2486   58.4464 C.ar    1  ZINC000546115054   -0.1200
     24 C24       -15.0480   -4.7288   57.3737 C.ar    1  ZINC000546115054   -0.1100
     25 C25       -13.3383   -3.0729   53.4690 C.2     1  ZINC000546115054    0.5000
     26 O26       -14.3948   -2.5512   53.1819 O.2     1  ZINC000546115054   -0.5200
     27 N27       -12.2795   -2.9492   52.6443 N.am    1  ZINC000546115054   -0.6200
     28 C28       -11.0038   -3.5808   52.9903 C.3     1  ZINC000546115054    0.0800
     29 C29       -12.4045   -2.1831   51.4019 C.3     1  ZINC000546115054    0.0700
     30 H30       -11.8762    3.2238   58.3719 H       1  ZINC000546115054    0.0700
     31 H31       -10.1942    2.8345   58.8051 H       1  ZINC000546115054    0.0600
     32 H32       -10.8270    2.3869   57.2028 H       1  ZINC000546115054    0.0600
     33 H33       -11.7770    1.2521   59.8724 H       1  ZINC000546115054    0.0500
     34 H34       -12.4098    0.8044   58.2700 H       1  ZINC000546115054    0.0500
     35 H35        -8.5199   -1.1351   59.8612 H       1  ZINC000546115054    0.0600
     36 H36        -9.4276   -0.2396   61.1035 H       1  ZINC000546115054    0.1000
     37 H37        -8.6600   -3.5607   59.8484 H       1  ZINC000546115054    0.0600
     38 H38        -9.6656   -4.3586   61.0816 H       1  ZINC000546115054    0.1000
     39 H39       -10.7623   -4.3599   58.8377 H       1  ZINC000546115054    0.0900
     40 H40       -11.7051   -3.4435   60.0391 H       1  ZINC000546115054    0.0800
     41 H41       -12.5595   -1.4907   57.8862 H       1  ZINC000546115054    0.3900
     42 H42       -13.7682   -2.2790   56.0513 H       1  ZINC000546115054    0.4000
     43 H43       -15.0668   -4.6897   54.0402 H       1  ZINC000546115054    0.0900
     44 H44       -14.1551   -5.7555   55.1362 H       1  ZINC000546115054    0.1100
     45 H45       -16.3535   -2.8041   54.9305 H       1  ZINC000546115054    0.1200
     46 H46       -17.6552   -1.9540   56.8401 H       1  ZINC000546115054    0.1200
     47 H47       -17.2847   -2.8786   59.0919 H       1  ZINC000546115054    0.1200
     48 H48       -15.6132   -4.6540   59.4341 H       1  ZINC000546115054    0.1200
     49 H49       -14.3148   -5.5075   57.5238 H       1  ZINC000546115054    0.1200
     50 H50       -10.9748   -4.5900   52.5793 H       1  ZINC000546115054    0.0600
     51 H51       -10.1839   -2.9953   52.5743 H       1  ZINC000546115054    0.0700
     52 H52       -10.9036   -3.6271   54.0747 H       1  ZINC000546115054    0.0800
     53 H53       -12.1482   -1.1406   51.5904 H       1  ZINC000546115054    0.0600
     54 H54       -11.7281   -2.5938   50.6522 H       1  ZINC000546115054    0.0800
     55 H55       -13.4302   -2.2450   51.0384 H       1  ZINC000546115054    0.0700
@<TRIPOS>BOND
     1     1     2    1
     2     1    30    1
     3     1    31    1
     4     1    32    1
     5     2     3    1
     6     2    33    1
     7     2    34    1
     8     3     4    1
     9     4     5    1
    10     4    10    1
    11     4     6    1
    12     6     7    1
    13     6    35    1
    14     6    36    1
    15     7     8    1
    16     8     9    1
    17     8    37    1
    18     8    38    1
    19     9    10    1
    20     9    39    1
    21     9    40    1
    22    10    11    1
    23    10    12    1
    24    12    13   am
    25    12    41    1
    26    13    14    2
    27    13    15   am
    28    15    16    1
    29    15    42    1
    30    16    17    1
    31    16    18    1
    32    16    25    1
    33    18    19    1
    34    18    43    1
    35    18    44    1
    36    19    24   ar
    37    19    20   ar
    38    20    21   ar
    39    20    45    1
    40    21    22   ar
    41    21    46    1
    42    22    23   ar
    43    22    47    1
    44    23    24   ar
    45    23    48    1
    46    24    49    1
    47    25    26    2
    48    25    27   am
    49    27    28    1
    50    27    29    1
    51    28    50    1
    52    28    51    1
    53    28    52    1
    54    29    53    1
    55    29    54    1
    56    29    55    1
@<TRIPOS>SUBSTRUCTURE
     1 ZINC000546115054        1 TEMP              0 ****  ****    0 ROOT


##########                                Name:    ZINC001193456967
##########                DOCK_Rotatable_Bonds:                   3
##########                         Heavy_Atoms:                  27
##########                    Molecular_Weight:             392.451
##########                DOCK_Rotatable_Bonds:                   3
##########                       Formal_Charge:           0.0300002
##########                     HBond_Acceptors:                   8
##########                        HBond_Donors:                   0
##########                         Heavy_Atoms:                  27
##########                          Grid_Score:          -32.714584
##########                     Grid_vdw_energy:          -32.580139
##########                      Grid_es_energy:           -0.134447
##########           Internal_energy_repulsive:           37.653694

@<TRIPOS>MOLECULE
ZINC001193456967
 48 50 1 0 0
SMALL
USER_CHARGES


@<TRIPOS>ATOM
      1 C1         -9.1644   -3.5613   59.6132 C.3     1  ZINC001193456967   -0.1400
      2 C2        -10.2610   -3.6933   58.5880 C.ar    1  ZINC001193456967    0.0300
      3 C3        -10.7667   -4.9407   58.2736 C.ar    1  ZINC001193456967   -0.1400
      4 C4        -11.7727   -5.0617   57.3329 C.ar    1  ZINC001193456967    0.0300
      5 C5        -12.2729   -3.9354   56.7073 C.ar    1  ZINC001193456967   -0.6900
      6 S6        -13.5546   -4.0897   55.5080 S.o2    1  ZINC001193456967    2.7100
      7 O7        -13.7421   -5.4825   55.2979 O.2     1  ZINC001193456967   -0.9300
      8 O8        -14.5983   -3.2187   55.9221 O.2     1  ZINC001193456967   -0.9400
      9 N9        -12.9708   -3.4764   54.0849 N.am    1  ZINC001193456967   -1.0000
     10 C10       -11.7907   -3.9740   53.3546 C.3     1  ZINC001193456967    0.1100
     11 C11       -11.3089   -2.7677   52.5107 C.3     1  ZINC001193456967   -0.1200
     12 C12       -12.6562   -2.1180   52.0985 C.3     1  ZINC001193456967   -0.0500
     13 H13       -13.0758   -2.6201   51.2267 H       1  ZINC001193456967    0.1000
     14 C14       -12.4778   -0.6460   51.8288 C.ar    1  ZINC001193456967   -0.0800
     15 C15       -13.1899   -0.0391   50.8110 C.ar    1  ZINC001193456967   -0.0800
     16 C16       -13.0270    1.3106   50.5627 C.ar    1  ZINC001193456967   -0.1500
     17 C17       -12.1508    2.0551   51.3340 C.ar    1  ZINC001193456967    0.1000
     18 F18       -11.9912    3.3747   51.0924 F       1  ZINC001193456967   -0.1400
     19 C19       -11.4386    1.4462   52.3533 C.ar    1  ZINC001193456967   -0.1500
     20 C20       -11.6066    0.0975   52.6029 C.ar    1  ZINC001193456967   -0.0800
     21 C21       -13.5473   -2.3494   53.3371 C.3     1  ZINC001193456967    0.1900
     22 C22       -14.9739   -2.6834   52.8966 C.3     1  ZINC001193456967   -0.1800
     23 C23       -13.5508   -1.0976   54.2168 C.3     1  ZINC001193456967   -0.1800
     24 C24       -11.7680   -2.6876   57.0226 C.ar    1  ZINC001193456967    0.0400
     25 C25       -10.7650   -2.5662   57.9658 C.ar    1  ZINC001193456967   -0.0600
     26 N26       -10.2243   -1.2303   58.3035 N.pl3   1  ZINC001193456967    0.0200
     27 O27        -9.9152   -0.9711   59.4528 O.2     1  ZINC001193456967   -0.1400
     28 O28       -10.0886   -0.3902   57.4321 O.2     1  ZINC001193456967   -0.1500
     29 H29        -9.6016   -3.3362   60.5859 H       1  ZINC001193456967    0.1100
     30 H30        -8.6082   -4.4968   59.6727 H       1  ZINC001193456967    0.0900
     31 H31        -8.4903   -2.7556   59.3226 H       1  ZINC001193456967    0.0800
     32 H32       -10.3758   -5.8207   58.7625 H       1  ZINC001193456967    0.1600
     33 H33       -12.1674   -6.0364   57.0868 H       1  ZINC001193456967    0.1600
     34 H34       -11.0138   -4.2820   54.0542 H       1  ZINC001193456967    0.0900
     35 H35       -12.0687   -4.8043   52.7054 H       1  ZINC001193456967    0.0700
     36 H36       -10.7129   -2.0823   53.1133 H       1  ZINC001193456967    0.0900
     37 H37       -10.7518   -3.1011   51.6350 H       1  ZINC001193456967    0.0900
     38 H38       -13.8733   -0.6200   50.2094 H       1  ZINC001193456967    0.1400
     39 H39       -13.5829    1.7844   49.7671 H       1  ZINC001193456967    0.1400
     40 H40       -10.7546    2.0260   52.9554 H       1  ZINC001193456967    0.1400
     41 H41       -11.0514   -0.3777   53.3982 H       1  ZINC001193456967    0.1300
     42 H42       -14.9638   -3.5869   52.2870 H       1  ZINC001193456967    0.0700
     43 H43       -15.5971   -2.8455   53.7761 H       1  ZINC001193456967    0.0600
     44 H44       -15.3772   -1.8558   52.3131 H       1  ZINC001193456967    0.0800
     45 H45       -13.8370   -0.2332   53.6176 H       1  ZINC001193456967    0.0800
     46 H46       -14.2640   -1.2276   55.0308 H       1  ZINC001193456967    0.0900
     47 H47       -12.5540   -0.9403   54.6287 H       1  ZINC001193456967    0.0700
     48 H48       -12.1592   -1.8075   56.5340 H       1  ZINC001193456967    0.1600
@<TRIPOS>BOND
     1     1     2    1
     2     1    29    1
     3     1    30    1
     4     1    31    1
     5     2    25   ar
     6     2     3   ar
     7     3     4   ar
     8     3    32    1
     9     4     5   ar
    10     4    33    1
    11     5     6    1
    12     5    24   ar
    13     6     7    2
    14     6     8    2
    15     6     9   am
    16     9    21    1
    17     9    10    1
    18    10    11    1
    19    10    34    1
    20    10    35    1
    21    11    12    1
    22    11    36    1
    23    11    37    1
    24    12    13    1
    25    12    14    1
    26    12    21    1
    27    14    20   ar
    28    14    15   ar
    29    15    16   ar
    30    15    38    1
    31    16    17   ar
    32    16    39    1
    33    17    18    1
    34    17    19   ar
    35    19    20   ar
    36    19    40    1
    37    20    41    1
    38    21    22    1
    39    21    23    1
    40    22    42    1
    41    22    43    1
    42    22    44    1
    43    23    45    1
    44    23    46    1
    45    23    47    1
    46    24    25   ar
    47    24    48    1
    48    25    26    1
    49    26    27    2
    50    26    28    2
@<TRIPOS>SUBSTRUCTURE
     1 ZINC001193456967        1 TEMP              0 ****  ****    0 ROOT


##########                                Name:    ZINC001327099466
##########                DOCK_Rotatable_Bonds:                   7
##########                         Heavy_Atoms:                  27
##########                    Molecular_Weight:             374.483
##########                DOCK_Rotatable_Bonds:                   7
##########                       Formal_Charge:           0.0199998
##########                     HBond_Acceptors:                   7
##########                        HBond_Donors:                   1
##########                         Heavy_Atoms:                  27
##########                          Grid_Score:          -32.708786
##########                     Grid_vdw_energy:          -32.545834
##########                      Grid_es_energy:           -0.162951
##########           Internal_energy_repulsive:           16.584768

@<TRIPOS>MOLECULE
ZINC001327099466
 57 60 1 0 0
SMALL
USER_CHARGES


@<TRIPOS>ATOM
      1 O1        -13.0403   -1.0189   54.1141 O.2     1  ZINC001327099466   -0.4800
      2 C2        -12.5706   -2.0683   53.7247 C.2     1  ZINC001327099466    0.5300
      3 N3        -11.3175   -2.1032   53.2296 N.am    1  ZINC001327099466   -0.6000
      4 C4        -10.5601   -0.9288   53.1594 C.2     1  ZINC001327099466    0.2900
      5 N5         -9.6975   -0.6225   52.2183 N.2     1  ZINC001327099466   -0.3100
      6 N6         -9.1559    0.6348   52.5150 N.pl3   1  ZINC001327099466   -0.3500
      7 C7         -8.1540    1.3494   51.7201 C.3     1  ZINC001327099466    0.1700
      8 C8         -7.5024    2.4356   52.5782 C.3     1  ZINC001327099466   -0.1300
      9 C9         -6.4559    3.1819   51.7481 C.3     1  ZINC001327099466   -0.1200
     10 C10        -5.3857    2.1975   51.2721 C.3     1  ZINC001327099466   -0.1300
     11 C11        -6.0374    1.1112   50.4142 C.3     1  ZINC001327099466   -0.1200
     12 C12        -7.0837    0.3649   51.2443 C.3     1  ZINC001327099466   -0.1300
     13 C13        -9.7189    1.0731   53.6609 C.2     1  ZINC001327099466    0.0700
     14 C14       -10.5941    0.1315   54.0800 C.2     1  ZINC001327099466   -0.2700
     15 C15       -13.3790   -3.3218   53.7997 C.2     1  ZINC001327099466    0.5100
     16 O16       -14.1384   -3.6090   52.8976 O.2     1  ZINC001327099466   -0.5100
     17 N17       -13.2654   -4.1340   54.8692 N.am    1  ZINC001327099466   -0.5700
     18 C18       -14.0541   -5.3705   54.9572 C.3     1  ZINC001327099466    0.0400
     19 C19       -14.8178   -5.3748   56.2852 C.3     1  ZINC001327099466   -0.1300
     20 C20       -13.8305   -5.1756   57.4375 C.3     1  ZINC001327099466   -0.1200
     21 C21       -13.1331   -3.8219   57.2857 C.3     1  ZINC001327099466    0.0800
     22 H22       -13.8791   -3.0271   57.2787 H       1  ZINC001327099466    0.0700
     23 O23       -12.2345   -3.6230   58.3790 O.3     1  ZINC001327099466   -0.3500
     24 C24       -12.3848   -2.3611   59.0326 C.3     1  ZINC001327099466    0.0600
     25 C25       -12.0321   -2.3968   60.5290 C.3     1  ZINC001327099466   -0.1600
     26 C26       -10.5871   -2.0708   60.1157 C.3     1  ZINC001327099466   -0.1400
     27 C27       -11.1777   -1.4258   58.8509 C.3     1  ZINC001327099466   -0.1400
     28 C28       -12.3461   -3.8028   55.9665 C.3     1  ZINC001327099466    0.0900
     29 H29       -10.9407   -2.9425   52.9221 H       1  ZINC001327099466    0.4300
     30 H30        -8.6352    1.8084   50.8565 H       1  ZINC001327099466    0.1000
     31 H31        -8.2648    3.1370   52.9172 H       1  ZINC001327099466    0.0700
     32 H32        -7.0211    1.9765   53.4417 H       1  ZINC001327099466    0.0700
     33 H33        -6.9371    3.6409   50.8845 H       1  ZINC001327099466    0.0700
     34 H34        -5.9917    3.9558   52.3594 H       1  ZINC001327099466    0.0700
     35 H35        -4.6403    2.7291   50.6808 H       1  ZINC001327099466    0.0700
     36 H36        -4.9045    1.7384   52.1358 H       1  ZINC001327099466    0.0700
     37 H37        -6.5186    1.5702   49.5505 H       1  ZINC001327099466    0.0700
     38 H38        -5.2749    0.4098   50.0751 H       1  ZINC001327099466    0.0700
     39 H39        -6.6026   -0.0941   52.1079 H       1  ZINC001327099466    0.0700
     40 H40        -7.5480   -0.4090   50.6330 H       1  ZINC001327099466    0.0700
     41 H41        -9.5102    2.0113   54.1534 H       1  ZINC001327099466    0.1800
     42 H42       -11.2063    0.1829   54.9683 H       1  ZINC001327099466    0.1700
     43 H43       -14.7612   -5.4126   54.1289 H       1  ZINC001327099466    0.1600
     44 H44       -13.3881   -6.2324   54.9160 H       1  ZINC001327099466    0.0700
     45 H45       -15.5479   -4.5654   56.2876 H       1  ZINC001327099466    0.0700
     46 H46       -15.3310   -6.3287   56.4066 H       1  ZINC001327099466    0.0900
     47 H47       -14.3683   -5.2029   58.3852 H       1  ZINC001327099466    0.0800
     48 H48       -13.0861   -5.9717   57.4196 H       1  ZINC001327099466    0.0800
     49 H49       -13.3419   -1.8853   58.8194 H       1  ZINC001327099466    0.0700
     50 H50       -12.5091   -1.6067   61.1088 H       1  ZINC001327099466    0.0900
     51 H51       -12.1452   -3.3821   60.9810 H       1  ZINC001327099466    0.0700
     52 H52       -10.0932   -1.3602   60.7783 H       1  ZINC001327099466    0.0700
     53 H53        -9.9811   -2.9540   59.9132 H       1  ZINC001327099466    0.0800
     54 H54       -10.6011   -1.6273   57.9480 H       1  ZINC001327099466    0.0800
     55 H55       -11.4212   -0.3703   58.9719 H       1  ZINC001327099466    0.0900
     56 H56       -11.5416   -4.5368   56.0104 H       1  ZINC001327099466    0.0900
     57 H57       -11.9285   -2.8091   55.8044 H       1  ZINC001327099466    0.1000
@<TRIPOS>BOND
     1     1     2    2
     2     2     3   am
     3     2    15    1
     4     3     4    1
     5     3    29    1
     6     4    14    1
     7     4     5    2
     8     5     6    1
     9     6     7    1
    10     6    13    1
    11     7    12    1
    12     7     8    1
    13     7    30    1
    14     8     9    1
    15     8    31    1
    16     8    32    1
    17     9    10    1
    18     9    33    1
    19     9    34    1
    20    10    11    1
    21    10    35    1
    22    10    36    1
    23    11    12    1
    24    11    37    1
    25    11    38    1
    26    12    39    1
    27    12    40    1
    28    13    14    2
    29    13    41    1
    30    14    42    1
    31    15    16    2
    32    15    17   am
    33    17    28    1
    34    17    18    1
    35    18    19    1
    36    18    43    1
    37    18    44    1
    38    19    20    1
    39    19    45    1
    40    19    46    1
    41    20    21    1
    42    20    47    1
    43    20    48    1
    44    21    22    1
    45    21    23    1
    46    21    28    1
    47    23    24    1
    48    24    27    1
    49    24    25    1
    50    24    49    1
    51    25    26    1
    52    25    50    1
    53    25    51    1
    54    26    27    1
    55    26    52    1
    56    26    53    1
    57    27    54    1
    58    27    55    1
    59    28    56    1
    60    28    57    1
@<TRIPOS>SUBSTRUCTURE
     1 ZINC001327099466        1 TEMP              0 ****  ****    0 ROOT


##########                                Name:    ZINC000550952205
##########                DOCK_Rotatable_Bonds:                   7
##########                         Heavy_Atoms:                  28
##########                    Molecular_Weight:             407.484
##########                DOCK_Rotatable_Bonds:                   7
##########                       Formal_Charge:        -2.68221e-07
##########                     HBond_Acceptors:                   8
##########                        HBond_Donors:                   2
##########                         Heavy_Atoms:                  28
##########                          Grid_Score:          -32.696087
##########                     Grid_vdw_energy:          -31.910378
##########                      Grid_es_energy:           -0.785708
##########           Internal_energy_repulsive:            6.073169

@<TRIPOS>MOLECULE
ZINC000550952205
 51 54 1 0 0
SMALL
USER_CHARGES


@<TRIPOS>ATOM
      1 O1        -11.7393   -0.9032   55.5273 O.2     1  ZINC000550952205   -0.5100
      2 C2        -10.6158   -0.5268   55.7895 C.2     1  ZINC000550952205    0.5100
      3 N3         -9.8049   -0.0892   54.8059 N.am    1  ZINC000550952205   -0.7000
      4 C4        -10.2779   -0.0734   53.4193 C.3     1  ZINC000550952205    0.1200
      5 C5         -9.7935    1.2035   52.7298 C.3     1  ZINC000550952205   -0.0900
      6 H6        -10.0337    1.1596   51.6674 H       1  ZINC000550952205    0.1000
      7 C7        -10.4642    2.3989   53.3506 C.3     1  ZINC000550952205   -0.1300
      8 C8        -10.7331    3.5205   52.3292 C.3     1  ZINC000550952205   -0.1200
      9 C9         -9.5568    3.7396   51.3588 C.3     1  ZINC000550952205   -0.1300
     10 C10        -8.2216    3.6823   52.0502 C.3     1  ZINC000550952205   -0.1500
     11 C11        -7.6730    2.2452   51.9379 C.3     1  ZINC000550952205    0.3000
     12 F12        -7.9378    1.7583   50.6534 F       1  ZINC000550952205   -0.2000
     13 F13        -6.2882    2.2722   52.1350 F       1  ZINC000550952205   -0.2000
     14 C14        -8.2682    1.3434   52.9107 C.3     1  ZINC000550952205   -0.1700
     15 C15       -10.1337   -0.5428   57.2027 C.2     1  ZINC000550952205    0.5100
     16 O16        -9.0043   -0.1821   57.4629 O.2     1  ZINC000550952205   -0.4900
     17 N17       -10.9528   -0.9578   58.1894 N.am    1  ZINC000550952205   -0.6400
     18 C18       -10.5015   -0.9728   59.5123 C.ar    1  ZINC000550952205    0.1500
     19 C19        -9.7242   -2.0344   59.9727 C.ar    1  ZINC000550952205   -0.1200
     20 C20        -9.2777   -2.0624   61.2580 C.ar    1  ZINC000550952205   -0.0400
     21 C21        -9.5937   -1.0165   62.1490 C.ar    1  ZINC000550952205    0.0800
     22 N22        -9.2539   -0.8588   63.4430 N.2     1  ZINC000550952205   -0.4700
     23 C23        -9.6680    0.1904   64.0459 C.2     1  ZINC000550952205    0.1200
     24 C24        -9.3730    0.5110   65.4886 C.3     1  ZINC000550952205   -0.1100
     25 C25        -8.6414   -0.5503   66.3129 C.3     1  ZINC000550952205   -0.1500
     26 C26        -7.9092    0.7216   65.8805 C.3     1  ZINC000550952205   -0.1500
     27 S27       -10.5952    1.1824   63.0125 S.3     1  ZINC000550952205    0.1200
     28 C28       -10.3740    0.0484   61.6835 C.ar    1  ZINC000550952205   -0.1700
     29 C29       -10.8208    0.0691   60.3652 C.ar    1  ZINC000550952205   -0.0700
     30 H30        -8.9083    0.2154   55.0159 H       1  ZINC000550952205    0.4200
     31 H31        -9.8853   -0.9427   52.8917 H       1  ZINC000550952205    0.0800
     32 H32       -11.3674   -0.1022   53.4068 H       1  ZINC000550952205    0.0800
     33 H33       -11.4123    2.0843   53.7868 H       1  ZINC000550952205    0.0700
     34 H34        -9.8259    2.7893   54.1432 H       1  ZINC000550952205    0.0700
     35 H35       -11.6219    3.2649   51.7522 H       1  ZINC000550952205    0.0700
     36 H36       -10.9218    4.4490   52.8682 H       1  ZINC000550952205    0.0700
     37 H37        -9.5878    2.9700   50.5876 H       1  ZINC000550952205    0.0800
     38 H38        -9.6672    4.7153   50.8853 H       1  ZINC000550952205    0.0700
     39 H39        -7.5311    4.3763   51.5712 H       1  ZINC000550952205    0.0900
     40 H40        -8.3416    3.9474   53.1007 H       1  ZINC000550952205    0.1000
     41 H41        -8.0703    1.7244   53.9126 H       1  ZINC000550952205    0.1000
     42 H42        -7.8057    0.3614   52.8108 H       1  ZINC000550952205    0.1000
     43 H43       -11.8553   -1.2458   57.9816 H       1  ZINC000550952205    0.4300
     44 H44        -9.4739   -2.8435   59.3024 H       1  ZINC000550952205    0.1400
     45 H45        -8.6769   -2.8929   61.5982 H       1  ZINC000550952205    0.1400
     46 H46       -10.1227    1.1162   65.9985 H       1  ZINC000550952205    0.1300
     47 H47        -8.9098   -0.6436   67.3652 H       1  ZINC000550952205    0.1000
     48 H48        -8.3734   -1.4804   65.8116 H       1  ZINC000550952205    0.1100
     49 H49        -7.1594    0.6284   65.0949 H       1  ZINC000550952205    0.1000
     50 H50        -7.6957    1.4652   66.6485 H       1  ZINC000550952205    0.1100
     51 H51       -11.4179    0.8957   60.0094 H       1  ZINC000550952205    0.1400
@<TRIPOS>BOND
     1     1     2    2
     2     2     3   am
     3     2    15    1
     4     3     4    1
     5     3    30    1
     6     4     5    1
     7     4    31    1
     8     4    32    1
     9     5     6    1
    10     5    14    1
    11     5     7    1
    12     7     8    1
    13     7    33    1
    14     7    34    1
    15     8     9    1
    16     8    35    1
    17     8    36    1
    18     9    10    1
    19     9    37    1
    20     9    38    1
    21    10    11    1
    22    10    39    1
    23    10    40    1
    24    11    12    1
    25    11    13    1
    26    11    14    1
    27    14    41    1
    28    14    42    1
    29    15    16    2
    30    15    17   am
    31    17    18    1
    32    17    43    1
    33    18    29   ar
    34    18    19   ar
    35    19    20   ar
    36    19    44    1
    37    20    21   ar
    38    20    45    1
    39    21    28   ar
    40    21    22    1
    41    22    23    2
    42    23    24    1
    43    23    27    1
    44    24    26    1
    45    24    25    1
    46    24    46    1
    47    25    26    1
    48    25    47    1
    49    25    48    1
    50    26    49    1
    51    26    50    1
    52    27    28    1
    53    28    29   ar
    54    29    51    1
@<TRIPOS>SUBSTRUCTURE
     1 ZINC000550952205        1 TEMP              0 ****  ****    0 ROOT


##########                                Name:    ZINC000655235556
##########                DOCK_Rotatable_Bonds:                   6
##########                         Heavy_Atoms:                  23
##########                    Molecular_Weight:             336.778
##########                DOCK_Rotatable_Bonds:                   6
##########                       Formal_Charge:         -0.00999996
##########                     HBond_Acceptors:                   8
##########                        HBond_Donors:                   2
##########                         Heavy_Atoms:                  23
##########                          Grid_Score:          -32.667877
##########                     Grid_vdw_energy:          -32.041565
##########                      Grid_es_energy:           -0.626313
##########           Internal_energy_repulsive:            5.959359

@<TRIPOS>MOLECULE
ZINC000655235556
 40 42 1 0 0
SMALL
USER_CHARGES


@<TRIPOS>ATOM
      1 C1        -10.5155   -1.8293   52.2276 C.3     1  ZINC000655235556    0.0200
      2 O2        -11.5042   -2.6722   51.6325 O.3     1  ZINC000655235556   -0.2700
      3 C3        -12.5978   -2.9620   52.3810 C.ar    1  ZINC000655235556    0.2000
      4 C4        -12.4885   -3.8047   53.4760 C.ar    1  ZINC000655235556   -0.2100
      5 C5        -13.6040   -4.0986   54.2380 C.ar    1  ZINC000655235556    0.0300
      6 Cl6       -13.4595   -5.1549   55.6081 Cl      1  ZINC000655235556   -0.0500
      7 C7        -14.8373   -3.5539   53.9143 C.ar    1  ZINC000655235556   -0.1600
      8 C8        -14.9628   -2.7145   52.8290 C.ar    1  ZINC000655235556   -0.0300
      9 C9        -13.8425   -2.4056   52.0537 C.ar    1  ZINC000655235556   -0.1700
     10 C10       -13.9704   -1.5073   50.8910 C.2     1  ZINC000655235556    0.5700
     11 O11       -13.9146   -0.3023   51.0446 O.2     1  ZINC000655235556   -0.5100
     12 N12       -14.1493   -2.0219   49.6583 N.am    1  ZINC000655235556   -0.7300
     13 C13       -14.2746   -1.1297   48.5031 C.3     1  ZINC000655235556    0.2100
     14 C14       -15.2394   -1.7254   47.5106 C.2     1  ZINC000655235556    0.2600
     15 N15       -15.4618   -3.0015   47.3263 N.2     1  ZINC000655235556   -0.5100
     16 C16       -16.3755   -3.1676   46.3708 C.2     1  ZINC000655235556    0.2200
     17 C17       -16.8949   -4.4933   45.8768 C.3     1  ZINC000655235556    0.1700
     18 H18       -17.9289   -4.3862   45.5492 H       1  ZINC000655235556    0.1100
     19 C19       -16.8091   -5.5428   47.0058 C.3     1  ZINC000655235556   -0.1400
     20 C20       -16.3640   -6.8173   46.2379 C.3     1  ZINC000655235556   -0.1500
     21 C21       -15.4551   -6.1999   45.1453 C.3     1  ZINC000655235556    0.0500
     22 O22       -16.0862   -4.9574   44.7896 O.3     1  ZINC000655235556   -0.3700
     23 N23       -16.7486   -1.9943   45.9318 N.2     1  ZINC000655235556   -0.2800
     24 N24       -16.0258   -1.0384   46.6641 N.pl3   1  ZINC000655235556   -0.4700
     25 H25       -10.9619   -0.8671   52.4788 H       1  ZINC000655235556    0.0600
     26 H26       -10.1340   -2.3004   53.1336 H       1  ZINC000655235556    0.0600
     27 H27        -9.6965   -1.6775   51.5245 H       1  ZINC000655235556    0.1100
     28 H28       -11.5310   -4.2325   53.7339 H       1  ZINC000655235556    0.1500
     29 H29       -15.7033   -3.7891   54.5152 H       1  ZINC000655235556    0.1400
     30 H30       -15.9255   -2.2928   52.5803 H       1  ZINC000655235556    0.1400
     31 H31       -14.1950   -2.9832   49.5359 H       1  ZINC000655235556    0.4000
     32 H32       -14.6452   -0.1589   48.8323 H       1  ZINC000655235556    0.1000
     33 H33       -13.2993   -1.0056   48.0323 H       1  ZINC000655235556    0.1100
     34 H34       -16.0628   -5.2557   47.7465 H       1  ZINC000655235556    0.0800
     35 H35       -17.7830   -5.6913   47.4721 H       1  ZINC000655235556    0.0900
     36 H36       -15.7997   -7.4888   46.8850 H       1  ZINC000655235556    0.0900
     37 H37       -17.2191   -7.3279   45.7951 H       1  ZINC000655235556    0.0800
     38 H38       -14.4565   -6.0176   45.5425 H       1  ZINC000655235556    0.0600
     39 H39       -15.4039   -6.8591   44.2789 H       1  ZINC000655235556    0.0900
     40 H40       -16.0787   -0.0742   46.5726 H       1  ZINC000655235556    0.4400
@<TRIPOS>BOND
     1     1     2    1
     2     1    25    1
     3     1    26    1
     4     1    27    1
     5     2     3    1
     6     3     9   ar
     7     3     4   ar
     8     4     5   ar
     9     4    28    1
    10     5     6    1
    11     5     7   ar
    12     7     8   ar
    13     7    29    1
    14     8     9   ar
    15     8    30    1
    16     9    10    1
    17    10    11    2
    18    10    12   am
    19    12    13    1
    20    12    31    1
    21    13    14    1
    22    13    32    1
    23    13    33    1
    24    14    24    1
    25    14    15    2
    26    15    16    1
    27    16    17    1
    28    16    23    2
    29    17    18    1
    30    17    22    1
    31    17    19    1
    32    19    20    1
    33    19    34    1
    34    19    35    1
    35    20    21    1
    36    20    36    1
    37    20    37    1
    38    21    22    1
    39    21    38    1
    40    21    39    1
    41    23    24    1
    42    24    40    1
@<TRIPOS>SUBSTRUCTURE
     1 ZINC000655235556        1 TEMP              0 ****  ****    0 ROOT


##########                                Name:    ZINC000846412382
##########                DOCK_Rotatable_Bonds:                   6
##########                         Heavy_Atoms:                  26
##########                    Molecular_Weight:             370.475
##########                DOCK_Rotatable_Bonds:                   6
##########                       Formal_Charge:               -0.03
##########                     HBond_Acceptors:                   7
##########                        HBond_Donors:                   4
##########                         Heavy_Atoms:                  26
##########                          Grid_Score:          -32.634968
##########                     Grid_vdw_energy:          -32.654709
##########                      Grid_es_energy:            0.019740
##########           Internal_energy_repulsive:           21.387592

@<TRIPOS>MOLECULE
ZINC000846412382
 48 50 1 0 0
SMALL
USER_CHARGES


@<TRIPOS>ATOM
      1 C1        -13.7257   -2.9576   59.1034 C.3     1  ZINC000846412382   -0.1400
      2 C2        -12.3166   -2.4770   59.3366 C.2     1  ZINC000846412382    0.0300
      3 C3        -11.3171   -2.7567   58.4906 C.2     1  ZINC000846412382   -0.2700
      4 C4        -11.4600   -3.5455   57.2609 C.2     1  ZINC000846412382    0.6000
      5 O5        -10.9782   -4.6607   57.1939 O.2     1  ZINC000846412382   -0.5200
      6 N6        -12.1251   -3.0344   56.2059 N.am    1  ZINC000846412382   -0.7100
      7 C7        -12.2663   -3.8209   54.9780 C.3     1  ZINC000846412382    0.1200
      8 H8        -11.3244   -4.3234   54.7581 H       1  ZINC000846412382    0.1000
      9 C9        -13.3696   -4.8645   55.1648 C.3     1  ZINC000846412382   -0.1700
     10 C10       -12.6326   -2.8936   53.8176 C.3     1  ZINC000846412382    0.1700
     11 C11       -13.7777   -1.9722   54.2430 C.3     1  ZINC000846412382   -0.1400
     12 O12       -13.0430   -3.6756   52.6941 O.3     1  ZINC000846412382   -0.5500
     13 C13       -11.4332   -2.0629   53.4404 C.ar    1  ZINC000846412382   -0.1200
     14 C14       -10.6511   -2.4286   52.3608 C.ar    1  ZINC000846412382   -0.1100
     15 C15        -9.5508   -1.6666   52.0148 C.ar    1  ZINC000846412382   -0.1200
     16 C16        -9.2330   -0.5387   52.7479 C.ar    1  ZINC000846412382   -0.1200
     17 C17       -10.0157   -0.1725   53.8270 C.ar    1  ZINC000846412382   -0.1200
     18 C18       -11.1184   -0.9321   54.1704 C.ar    1  ZINC000846412382   -0.1000
     19 S19        -9.8125   -2.0497   59.0545 S.3     1  ZINC000846412382    0.2000
     20 C20       -10.6047   -1.3707   60.4699 C.ar    1  ZINC000846412382    0.1400
     21 N21       -10.1283   -0.6352   61.4809 N.ar    1  ZINC000846412382   -0.5300
     22 C22       -10.9137   -0.2274   62.4514 C.ar    1  ZINC000846412382    0.3900
     23 C23       -10.3252    0.5991   63.5657 C.3     1  ZINC000846412382   -0.0900
     24 N24       -12.2018   -0.5168   62.4832 N.ar    1  ZINC000846412382   -0.5800
     25 C25       -12.7683   -1.2392   61.5286 C.ar    1  ZINC000846412382    0.5100
     26 N26       -14.1161   -1.5323   61.5777 N.pl3   1  ZINC000846412382   -0.8300
     27 C27       -11.9662   -1.7039   60.4483 C.ar    1  ZINC000846412382   -0.2500
     28 H28       -14.2970   -2.1775   58.6002 H       1  ZINC000846412382    0.0800
     29 H29       -13.7062   -3.8523   58.4812 H       1  ZINC000846412382    0.1100
     30 H30       -14.1932   -3.1905   60.0601 H       1  ZINC000846412382    0.0700
     31 H31       -12.5104   -2.1458   56.2596 H       1  ZINC000846412382    0.4000
     32 H32       -14.3115   -4.3619   55.3847 H       1  ZINC000846412382    0.0600
     33 H33       -13.4746   -5.4497   54.2512 H       1  ZINC000846412382    0.0800
     34 H34       -13.1086   -5.5251   55.9915 H       1  ZINC000846412382    0.0700
     35 H35       -13.4648   -1.3756   55.0999 H       1  ZINC000846412382    0.0700
     36 H36       -14.0387   -1.3115   53.4163 H       1  ZINC000846412382    0.0700
     37 H37       -14.6452   -2.5730   54.5158 H       1  ZINC000846412382    0.0700
     38 H38       -13.3626   -3.1522   51.9464 H       1  ZINC000846412382    0.3800
     39 H39       -10.8994   -3.3099   51.7880 H       1  ZINC000846412382    0.1300
     40 H40        -8.9394   -1.9527   51.1718 H       1  ZINC000846412382    0.1200
     41 H41        -8.3730    0.0562   52.4781 H       1  ZINC000846412382    0.1200
     42 H42        -9.7672    0.7085   54.4000 H       1  ZINC000846412382    0.1200
     43 H43       -11.7298   -0.6460   55.0135 H       1  ZINC000846412382    0.1300
     44 H44       -10.3895    1.6561   63.3071 H       1  ZINC000846412382    0.0900
     45 H45       -10.8800    0.4158   64.4859 H       1  ZINC000846412382    0.0900
     46 H46        -9.2807    0.3232   63.7101 H       1  ZINC000846412382    0.0900
     47 H47       -14.5882   -1.5034   62.4246 H       1  ZINC000846412382    0.4100
     48 H48       -14.5912   -1.7671   60.7654 H       1  ZINC000846412382    0.4200
@<TRIPOS>BOND
     1     1     2    1
     2     1    28    1
     3     1    29    1
     4     1    30    1
     5     2    27    1
     6     2     3    2
     7     3     4    1
     8     3    19    1
     9     4     5    2
    10     4     6   am
    11     6     7    1
    12     6    31    1
    13     7     8    1
    14     7     9    1
    15     7    10    1
    16     9    32    1
    17     9    33    1
    18     9    34    1
    19    10    11    1
    20    10    12    1
    21    10    13    1
    22    11    35    1
    23    11    36    1
    24    11    37    1
    25    12    38    1
    26    13    18   ar
    27    13    14   ar
    28    14    15   ar
    29    14    39    1
    30    15    16   ar
    31    15    40    1
    32    16    17   ar
    33    16    41    1
    34    17    18   ar
    35    17    42    1
    36    18    43    1
    37    19    20    1
    38    20    27   ar
    39    20    21   ar
    40    21    22   ar
    41    22    23    1
    42    22    24   ar
    43    23    44    1
    44    23    45    1
    45    23    46    1
    46    24    25   ar
    47    25    26    1
    48    25    27   ar
    49    26    47    1
    50    26    48    1
@<TRIPOS>SUBSTRUCTURE
     1 ZINC000846412382        1 TEMP              0 ****  ****    0 ROOT


##########                                Name:    ZINC000426037318
##########                DOCK_Rotatable_Bonds:                   7
##########                         Heavy_Atoms:                  28
##########                    Molecular_Weight:             421.904
##########                DOCK_Rotatable_Bonds:                   7
##########                       Formal_Charge:         -0.00999981
##########                     HBond_Acceptors:                   9
##########                        HBond_Donors:                   1
##########                         Heavy_Atoms:                  28
##########                          Grid_Score:          -32.627373
##########                     Grid_vdw_energy:          -32.426666
##########                      Grid_es_energy:           -0.200705
##########           Internal_energy_repulsive:           21.755774

@<TRIPOS>MOLECULE
ZINC000426037318
 48 50 1 0 0
SMALL
USER_CHARGES


@<TRIPOS>ATOM
      1 C1         -2.7076    1.0210   47.2457 C.3     1  ZINC000426037318    0.0300
      2 O2         -2.1390    0.9015   48.5512 O.3     1  ZINC000426037318   -0.3800
      3 C3         -2.1327    2.1209   49.2963 C.3     1  ZINC000426037318    0.1300
      4 C4         -3.3676    2.1900   50.1572 C.ar    1  ZINC000426037318    0.3900
      5 N5         -3.4200    3.0839   51.1283 N.ar    1  ZINC000426037318   -0.5700
      6 C6         -4.4801    3.1865   51.9119 C.ar    1  ZINC000426037318    0.4400
      7 O7         -4.5162    4.1089   52.9017 O.3     1  ZINC000426037318   -0.2800
      8 C8         -3.7162    3.8518   54.0575 C.3     1  ZINC000426037318    0.0300
      9 C9         -5.5812    2.3139   51.6987 C.ar    1  ZINC000426037318   -0.2000
     10 C10        -6.8006    2.2215   52.3793 C.2     1  ZINC000426037318    0.0500
     11 C11        -7.1440    3.1197   53.5397 C.3     1  ZINC000426037318   -0.1200
     12 C12        -7.6417    1.2819   51.9301 C.2     1  ZINC000426037318   -0.2700
     13 C13        -8.9703    1.0121   52.4937 C.2     1  ZINC000426037318    0.6000
     14 O14        -9.8457    1.8539   52.4180 O.2     1  ZINC000426037318   -0.5000
     15 N15        -9.2203   -0.1679   53.0949 N.am    1  ZINC000426037318   -0.6600
     16 C16       -10.4879   -0.4254   53.6326 C.ar    1  ZINC000426037318    0.1200
     17 C17       -11.0278    0.4333   54.5801 C.ar    1  ZINC000426037318   -0.0700
     18 C18       -12.2780    0.1791   55.1096 C.ar    1  ZINC000426037318   -0.0900
     19 C19       -12.8641    1.1118   56.1381 C.3     1  ZINC000426037318   -0.1100
     20 C20       -12.9944   -0.9338   54.6951 C.ar    1  ZINC000426037318    0.1300
     21 O21       -14.2252   -1.1827   55.2168 O.3     1  ZINC000426037318   -0.3100
     22 C22       -14.9142   -2.3368   54.7318 C.3     1  ZINC000426037318    0.0200
     23 C23       -12.4563   -1.7931   53.7480 C.ar    1  ZINC000426037318   -0.1800
     24 C24       -11.2083   -1.5377   53.2134 C.ar    1  ZINC000426037318   -0.0300
     25 Cl25      -10.5348   -2.6124   52.0279 Cl      1  ZINC000426037318   -0.0600
     26 S26        -6.9380    0.4171   50.5743 S.3     1  ZINC000426037318    0.2200
     27 C27        -5.4718    1.3845   50.6541 C.ar    1  ZINC000426037318    0.1300
     28 N28        -4.3583    1.3631   49.9137 N.ar    1  ZINC000426037318   -0.5000
     29 H29        -2.6750    0.0532   46.7453 H       1  ZINC000426037318    0.0900
     30 H30        -3.7427    1.3521   47.3292 H       1  ZINC000426037318    0.0500
     31 H31        -2.1389    1.7488   46.6668 H       1  ZINC000426037318    0.0500
     32 H32        -1.2460    2.1554   49.9293 H       1  ZINC000426037318    0.0900
     33 H33        -2.1213    2.9667   48.6088 H       1  ZINC000426037318    0.0800
     34 H34        -2.6689    3.7769   53.7651 H       1  ZINC000426037318    0.0700
     35 H35        -3.8367    4.6667   54.7713 H       1  ZINC000426037318    0.1100
     36 H36        -4.0329    2.9158   54.5177 H       1  ZINC000426037318    0.0700
     37 H37        -7.6407    4.0168   53.1702 H       1  ZINC000426037318    0.0900
     38 H38        -7.8086    2.5918   54.2235 H       1  ZINC000426037318    0.1000
     39 H39        -6.2308    3.4001   54.0647 H       1  ZINC000426037318    0.0800
     40 H40        -8.5225   -0.8391   53.1551 H       1  ZINC000426037318    0.4100
     41 H41       -10.4702    1.2998   54.9036 H       1  ZINC000426037318    0.1600
     42 H42       -13.4359    1.8926   55.6366 H       1  ZINC000426037318    0.0700
     43 H43       -13.5204    0.5518   56.8043 H       1  ZINC000426037318    0.0700
     44 H44       -12.0599    1.5655   56.7173 H       1  ZINC000426037318    0.0700
     45 H45       -15.0653   -2.2445   53.6563 H       1  ZINC000426037318    0.0600
     46 H46       -14.3221   -3.2278   54.9404 H       1  ZINC000426037318    0.0600
     47 H47       -15.8809   -2.4184   55.2288 H       1  ZINC000426037318    0.1000
     48 H48       -13.0148   -2.6595   53.4257 H       1  ZINC000426037318    0.1500
@<TRIPOS>BOND
     1     1     2    1
     2     1    29    1
     3     1    30    1
     4     1    31    1
     5     2     3    1
     6     3     4    1
     7     3    32    1
     8     3    33    1
     9     4    28   ar
    10     4     5   ar
    11     5     6   ar
    12     6     7    1
    13     6     9   ar
    14     7     8    1
    15     8    34    1
    16     8    35    1
    17     8    36    1
    18     9    27   ar
    19     9    10    1
    20    10    11    1
    21    10    12    2
    22    11    37    1
    23    11    38    1
    24    11    39    1
    25    12    13    1
    26    12    26    1
    27    13    14    2
    28    13    15   am
    29    15    16    1
    30    15    40    1
    31    16    24   ar
    32    16    17   ar
    33    17    18   ar
    34    17    41    1
    35    18    19    1
    36    18    20   ar
    37    19    42    1
    38    19    43    1
    39    19    44    1
    40    20    21    1
    41    20    23   ar
    42    21    22    1
    43    22    45    1
    44    22    46    1
    45    22    47    1
    46    23    24   ar
    47    23    48    1
    48    24    25    1
    49    26    27    1
    50    27    28   ar
@<TRIPOS>SUBSTRUCTURE
     1 ZINC000426037318        1 TEMP              0 ****  ****    0 ROOT


##########                                Name:    ZINC000866034032
##########                DOCK_Rotatable_Bonds:                   4
##########                         Heavy_Atoms:                  23
##########                    Molecular_Weight:             383.242
##########                DOCK_Rotatable_Bonds:                   4
##########                       Formal_Charge:           0.0199999
##########                     HBond_Acceptors:                   6
##########                        HBond_Donors:                   1
##########                         Heavy_Atoms:                  23
##########                          Grid_Score:          -32.611515
##########                     Grid_vdw_energy:          -32.325413
##########                      Grid_es_energy:           -0.286101
##########           Internal_energy_repulsive:           13.428415

@<TRIPOS>MOLECULE
ZINC000866034032
 42 44 1 0 0
SMALL
USER_CHARGES


@<TRIPOS>ATOM
      1 C1        -10.0261   -1.7791   60.5465 C.3     1  ZINC000866034032   -0.1300
      2 C2        -10.8609   -1.4995   59.2951 C.3     1  ZINC000866034032   -0.0800
      3 C3        -11.5550   -0.1366   59.3381 C.3     1  ZINC000866034032   -0.1300
      4 C4        -10.1072   -1.7649   57.9827 C.3     1  ZINC000866034032    0.1400
      5 H5         -9.0239   -1.6969   58.0816 H       1  ZINC000866034032    0.1100
      6 N6        -10.6228   -0.9971   56.8466 N.am    1  ZINC000866034032   -0.7000
      7 C7        -10.0908    0.2048   56.5485 C.2     1  ZINC000866034032    0.5100
      8 O8         -9.1863    0.6514   57.2218 O.2     1  ZINC000866034032   -0.5300
      9 C9        -10.6199    0.9939   55.3787 C.3     1  ZINC000866034032   -0.1100
     10 C10        -9.5753    1.0454   54.2937 C.ar    1  ZINC000866034032   -0.0500
     11 C11        -8.7994    2.1782   54.1350 C.ar    1  ZINC000866034032   -0.0500
     12 C12        -7.8413    2.2260   53.1395 C.ar    1  ZINC000866034032   -0.0900
     13 C13        -7.6590    1.1400   52.3028 C.ar    1  ZINC000866034032   -0.0500
     14 Br14       -6.3482    1.2047   50.9414 Br      1  ZINC000866034032    0.0200
     15 C15        -8.4356    0.0063   52.4623 C.ar    1  ZINC000866034032   -0.0200
     16 N16        -8.2406   -1.1563   51.5674 N.pl3   1  ZINC000866034032    0.0200
     17 O17        -8.9244   -2.1545   51.7081 O.2     1  ZINC000866034032   -0.1600
     18 O18        -7.3964   -1.1151   50.6905 O.2     1  ZINC000866034032   -0.1300
     19 C19        -9.3895   -0.0426   53.4610 C.ar    1  ZINC000866034032   -0.0300
     20 C20       -10.6400   -3.2057   58.0444 C.3     1  ZINC000866034032   -0.1500
     21 H21        -9.9845   -3.9450   58.5046 H       1  ZINC000866034032    0.1200
     22 C22       -11.3191   -3.6513   56.7301 C.3     1  ZINC000866034032   -0.1400
     23 C23       -12.8123   -3.3215   56.9463 C.3     1  ZINC000866034032    0.0500
     24 O24       -12.8188   -2.2750   57.9413 O.3     1  ZINC000866034032   -0.3600
     25 C25       -11.7992   -2.6538   58.9132 C.3     1  ZINC000866034032    0.0600
     26 H26       -12.1528   -3.2888   59.7255 H       1  ZINC000866034032    0.1000
     27 H27        -9.6823   -2.8134   60.5302 H       1  ZINC000866034032    0.0600
     28 H28        -9.1656   -1.1104   60.5660 H       1  ZINC000866034032    0.0700
     29 H29       -10.6357   -1.6128   61.4346 H       1  ZINC000866034032    0.0700
     30 H30       -10.8098    0.6537   59.2479 H       1  ZINC000866034032    0.0600
     31 H31       -12.2636   -0.0635   58.5131 H       1  ZINC000866034032    0.0600
     32 H32       -12.0861   -0.0290   60.2839 H       1  ZINC000866034032    0.0600
     33 H33       -11.3471   -1.3537   56.3088 H       1  ZINC000866034032    0.4100
     34 H34       -11.5199    0.5141   54.9940 H       1  ZINC000866034032    0.1100
     35 H35       -10.8584    2.0072   55.7020 H       1  ZINC000866034032    0.1200
     36 H36        -8.9419    3.0262   54.7884 H       1  ZINC000866034032    0.1500
     37 H37        -7.2355    3.1114   53.0150 H       1  ZINC000866034032    0.1600
     38 H38        -9.9956   -0.9278   53.5860 H       1  ZINC000866034032    0.1600
     39 H39       -10.9222   -3.0881   55.8855 H       1  ZINC000866034032    0.0800
     40 H40       -11.1831   -4.7215   56.5740 H       1  ZINC000866034032    0.0800
     41 H41       -13.2607   -2.9658   56.0187 H       1  ZINC000866034032    0.0900
     42 H42       -13.3451   -4.1983   57.3145 H       1  ZINC000866034032    0.0600
@<TRIPOS>BOND
     1     1     2    1
     2     1    27    1
     3     1    28    1
     4     1    29    1
     5     2    25    1
     6     2     3    1
     7     2     4    1
     8     3    30    1
     9     3    31    1
    10     3    32    1
    11     4     5    1
    12     4     6    1
    13     4    20    1
    14     6     7   am
    15     6    33    1
    16     7     8    2
    17     7     9    1
    18     9    10    1
    19     9    34    1
    20     9    35    1
    21    10    19   ar
    22    10    11   ar
    23    11    12   ar
    24    11    36    1
    25    12    13   ar
    26    12    37    1
    27    13    14    1
    28    13    15   ar
    29    15    16    1
    30    15    19   ar
    31    16    17    2
    32    16    18    2
    33    19    38    1
    34    20    21    1
    35    20    25    1
    36    20    22    1
    37    22    23    1
    38    22    39    1
    39    22    40    1
    40    23    24    1
    41    23    41    1
    42    23    42    1
    43    24    25    1
    44    25    26    1
@<TRIPOS>SUBSTRUCTURE
     1 ZINC000866034032        1 TEMP              0 ****  ****    0 ROOT


##########                                Name:    ZINC000541252362
##########                DOCK_Rotatable_Bonds:                   5
##########                         Heavy_Atoms:                  27
##########                    Molecular_Weight:             401.254
##########                DOCK_Rotatable_Bonds:                   5
##########                       Formal_Charge:          -0.0199999
##########                     HBond_Acceptors:                   9
##########                        HBond_Donors:                   1
##########                         Heavy_Atoms:                  27
##########                          Grid_Score:          -32.607979
##########                     Grid_vdw_energy:          -33.939091
##########                      Grid_es_energy:            1.331111
##########           Internal_energy_repulsive:            6.949695

@<TRIPOS>MOLECULE
ZINC000541252362
 41 44 1 0 0
SMALL
USER_CHARGES


@<TRIPOS>ATOM
      1 C1         -9.4009    1.2545   66.1843 C.3     1  ZINC000541252362    0.1000
      2 N2         -9.8093    1.1184   64.7839 N.pl3   1  ZINC000541252362   -0.3800
      3 C3        -10.4651    2.0311   64.0446 C.2     1  ZINC000541252362    0.2600
      4 N4        -10.6445    1.5375   62.8480 N.2     1  ZINC000541252362   -0.5300
      5 C5        -10.1166    0.3080   62.7809 C.2     1  ZINC000541252362    0.2700
      6 C6        -10.1219   -0.5716   61.5855 C.ar    1  ZINC000541252362    0.0000
      7 C7         -9.5458   -1.8388   61.6481 C.ar    1  ZINC000541252362   -0.1000
      8 C8         -9.5518   -2.6563   60.5353 C.ar    1  ZINC000541252362   -0.1000
      9 C9        -10.1279   -2.2218   59.3569 C.ar    1  ZINC000541252362   -0.1300
     10 C10       -10.7048   -0.9595   59.2855 C.ar    1  ZINC000541252362    0.1400
     11 N11       -11.2874   -0.5227   58.0904 N.am    1  ZINC000541252362   -0.6800
     12 C12       -10.9925    0.6991   57.6041 C.2     1  ZINC000541252362    0.5100
     13 O13       -10.2223    1.4203   58.2023 O.2     1  ZINC000541252362   -0.4900
     14 C14       -11.6198    1.1695   56.3171 C.3     1  ZINC000541252362   -0.0600
     15 C15       -10.7535    0.7561   55.1554 C.2     1  ZINC000541252362    0.0700
     16 C16        -9.6713    1.4258   54.7014 C.2     1  ZINC000541252362   -0.0700
     17 N17        -9.1744    0.7192   53.6405 N.pl3   1  ZINC000541252362   -0.3500
     18 C18        -8.1087    0.9251   52.8113 C.2     1  ZINC000541252362    0.0700
     19 C19        -7.8321    0.0537   51.8176 C.2     1  ZINC000541252362   -0.0500
     20 Cl20       -6.4727    0.3346   50.7752 Cl      1  ZINC000541252362   -0.0200
     21 C21        -8.6399   -1.0800   51.6239 C.2     1  ZINC000541252362   -0.0900
     22 C22        -9.7046   -1.2969   52.4435 C.2     1  ZINC000541252362    0.0200
     23 Cl23      -10.7132   -2.6921   52.2200 Cl      1  ZINC000541252362   -0.0100
     24 C24        -9.9801   -0.3770   53.4764 C.2     1  ZINC000541252362    0.2200
     25 N25       -10.9236   -0.3361   54.4069 N.2     1  ZINC000541252362   -0.4300
     26 C26       -10.7078   -0.1350   60.4002 C.ar    1  ZINC000541252362   -0.0800
     27 N27        -9.5877    0.0121   63.9478 N.2     1  ZINC000541252362   -0.3100
     28 H28        -8.4045    1.6940   66.2310 H       1  ZINC000541252362    0.0800
     29 H29       -10.1072    1.8987   66.7077 H       1  ZINC000541252362    0.0900
     30 H30        -9.3870    0.2718   66.6557 H       1  ZINC000541252362    0.0900
     31 H31       -10.7882    3.0048   64.3822 H       1  ZINC000541252362    0.2200
     32 H32        -9.0939   -2.1816   62.5673 H       1  ZINC000541252362    0.1300
     33 H33        -9.1047   -3.6382   60.5859 H       1  ZINC000541252362    0.1300
     34 H34       -10.1296   -2.8645   58.4890 H       1  ZINC000541252362    0.1300
     35 H35       -11.9034   -1.0995   57.6121 H       1  ZINC000541252362    0.4100
     36 H36       -12.6083    0.7226   56.2103 H       1  ZINC000541252362    0.1200
     37 H37       -11.7120    2.2555   56.3334 H       1  ZINC000541252362    0.1200
     38 H38        -9.2735    2.3471   55.1008 H       1  ZINC000541252362    0.1900
     39 H39        -7.4816    1.7932   52.9516 H       1  ZINC000541252362    0.1800
     40 H40        -8.4170   -1.7756   50.8283 H       1  ZINC000541252362    0.1600
     41 H41       -11.1559    0.8462   60.3470 H       1  ZINC000541252362    0.1500
@<TRIPOS>BOND
     1     1     2    1
     2     1    28    1
     3     1    29    1
     4     1    30    1
     5     2    27    1
     6     2     3    1
     7     3     4    2
     8     3    31    1
     9     4     5    1
    10     5     6    1
    11     5    27    2
    12     6    26   ar
    13     6     7   ar
    14     7     8   ar
    15     7    32    1
    16     8     9   ar
    17     8    33    1
    18     9    10   ar
    19     9    34    1
    20    10    11    1
    21    10    26   ar
    22    11    12   am
    23    11    35    1
    24    12    13    2
    25    12    14    1
    26    14    15    1
    27    14    36    1
    28    14    37    1
    29    15    25    1
    30    15    16    2
    31    16    17    1
    32    16    38    1
    33    17    24    1
    34    17    18    1
    35    18    19    2
    36    18    39    1
    37    19    20    1
    38    19    21    1
    39    21    22    2
    40    21    40    1
    41    22    23    1
    42    22    24    1
    43    24    25    2
    44    26    41    1
@<TRIPOS>SUBSTRUCTURE
     1 ZINC000541252362        1 TEMP              0 ****  ****    0 ROOT


##########                                Name:    ZINC000501032137
##########                DOCK_Rotatable_Bonds:                  10
##########                         Heavy_Atoms:                  25
##########                    Molecular_Weight:             407.307
##########                DOCK_Rotatable_Bonds:                  10
##########                       Formal_Charge:           0.0099998
##########                     HBond_Acceptors:                   5
##########                        HBond_Donors:                   1
##########                         Heavy_Atoms:                  25
##########                          Grid_Score:          -32.603828
##########                     Grid_vdw_energy:          -30.792095
##########                      Grid_es_energy:           -1.811731
##########           Internal_energy_repulsive:            8.297048

@<TRIPOS>MOLECULE
ZINC000501032137
 48 50 1 0 0
SMALL
USER_CHARGES


@<TRIPOS>ATOM
      1 C1        -13.9125   -5.6566   56.0743 C.3     1  ZINC000501032137   -0.1500
      2 C2        -13.5776   -4.5138   57.0350 C.3     1  ZINC000501032137   -0.1200
      3 C3        -12.0780   -4.5251   57.3380 C.3     1  ZINC000501032137    0.0600
      4 O4        -11.7463   -3.3921   58.1432 O.3     1  ZINC000501032137   -0.3800
      5 C5        -10.3730   -3.3397   58.5351 C.3     1  ZINC000501032137    0.0500
      6 C6        -10.1723   -2.2031   59.5395 C.3     1  ZINC000501032137    0.1600
      7 H7         -9.1068   -2.0623   59.7206 H       1  ZINC000501032137    0.1000
      8 C8        -10.8710   -2.5550   60.8543 C.3     1  ZINC000501032137   -0.0900
      9 C9        -10.7680   -1.3906   61.8052 C.ar    1  ZINC000501032137   -0.0600
     10 C10        -9.5580   -1.0912   62.4026 C.ar    1  ZINC000501032137   -0.0900
     11 C11        -9.4629   -0.0229   63.2752 C.ar    1  ZINC000501032137   -0.1100
     12 C12       -10.5777    0.7460   63.5505 C.ar    1  ZINC000501032137   -0.0900
     13 C13       -11.7890    0.4467   62.9529 C.ar    1  ZINC000501032137   -0.0800
     14 Br14      -13.3148    1.4986   63.3293 Br      1  ZINC000501032137   -0.0600
     15 C15       -11.8824   -0.6185   62.0757 C.ar    1  ZINC000501032137   -0.0800
     16 N16       -10.7433   -0.9671   58.9987 N.am    1  ZINC000501032137   -0.7100
     17 C17       -10.0081   -0.1856   58.1831 C.2     1  ZINC000501032137    0.6100
     18 O18        -8.8713   -0.5072   57.8949 O.2     1  ZINC000501032137   -0.5200
     19 C19       -10.5821    1.0591   57.6404 C.2     1  ZINC000501032137   -0.0800
     20 C20        -9.9514    1.9559   56.8341 C.2     1  ZINC000501032137    0.0800
     21 C21        -8.5350    1.8655   56.3274 C.3     1  ZINC000501032137   -0.0800
     22 C22        -7.8557    3.1659   55.8935 C.3     1  ZINC000501032137   -0.1700
     23 C23        -7.4340    2.4796   57.1943 C.3     1  ZINC000501032137   -0.1500
     24 O24       -10.8314    2.9364   56.5757 O.3     1  ZINC000501032137   -0.2000
     25 C25       -11.9775    2.6488   57.2089 C.2     1  ZINC000501032137    0.1800
     26 N26       -11.8439    1.5245   57.8464 N.2     1  ZINC000501032137   -0.4600
     27 H27       -13.3536   -5.5276   55.1474 H       1  ZINC000501032137    0.0600
     28 H28       -13.6416   -6.6076   56.5326 H       1  ZINC000501032137    0.0600
     29 H29       -14.9808   -5.6486   55.8584 H       1  ZINC000501032137    0.0600
     30 H30       -13.8486   -3.5627   56.5766 H       1  ZINC000501032137    0.0700
     31 H31       -14.1366   -4.6427   57.9618 H       1  ZINC000501032137    0.0700
     32 H32       -11.8225   -5.4391   57.8739 H       1  ZINC000501032137    0.0500
     33 H33       -11.5182   -4.4832   56.4036 H       1  ZINC000501032137    0.0500
     34 H34       -10.0903   -4.2861   58.9962 H       1  ZINC000501032137    0.0700
     35 H35        -9.7512   -3.1631   57.6574 H       1  ZINC000501032137    0.0600
     36 H36       -11.9210   -2.7740   60.6605 H       1  ZINC000501032137    0.0900
     37 H37       -10.3933   -3.4290   61.2970 H       1  ZINC000501032137    0.0800
     38 H38        -8.6867   -1.6921   62.1879 H       1  ZINC000501032137    0.1200
     39 H39        -8.5173    0.2104   63.7420 H       1  ZINC000501032137    0.1300
     40 H40       -10.5033    1.5803   64.2324 H       1  ZINC000501032137    0.1300
     41 H41       -12.8277   -0.8523   61.6086 H       1  ZINC000501032137    0.1200
     42 H42       -11.6505   -0.7112   59.2276 H       1  ZINC000501032137    0.4100
     43 H43        -8.2916    0.9602   55.7713 H       1  ZINC000501032137    0.1500
     44 H44        -7.1651    3.1163   55.0516 H       1  ZINC000501032137    0.1100
     45 H45        -8.4330    4.0868   55.9745 H       1  ZINC000501032137    0.1000
     46 H46        -7.7341    2.9491   58.1312 H       1  ZINC000501032137    0.1000
     47 H47        -6.4661    1.9786   57.2083 H       1  ZINC000501032137    0.1100
     48 H48       -12.8717    3.2542   57.1893 H       1  ZINC000501032137    0.2500
@<TRIPOS>BOND
     1     1     2    1
     2     1    27    1
     3     1    28    1
     4     1    29    1
     5     2     3    1
     6     2    30    1
     7     2    31    1
     8     3     4    1
     9     3    32    1
    10     3    33    1
    11     4     5    1
    12     5     6    1
    13     5    34    1
    14     5    35    1
    15     6     7    1
    16     6     8    1
    17     6    16    1
    18     8     9    1
    19     8    36    1
    20     8    37    1
    21     9    15   ar
    22     9    10   ar
    23    10    11   ar
    24    10    38    1
    25    11    12   ar
    26    11    39    1
    27    12    13   ar
    28    12    40    1
    29    13    14    1
    30    13    15   ar
    31    15    41    1
    32    16    17   am
    33    16    42    1
    34    17    18    2
    35    17    19    1
    36    19    26    1
    37    19    20    2
    38    20    21    1
    39    20    24    1
    40    21    23    1
    41    21    22    1
    42    21    43    1
    43    22    23    1
    44    22    44    1
    45    22    45    1
    46    23    46    1
    47    23    47    1
    48    24    25    1
    49    25    26    2
    50    25    48    1
@<TRIPOS>SUBSTRUCTURE
     1 ZINC000501032137        1 TEMP              0 ****  ****    0 ROOT


##########                                Name:    ZINC000433533595
##########                DOCK_Rotatable_Bonds:                  10
##########                         Heavy_Atoms:                  24
##########                    Molecular_Weight:             397.312
##########                DOCK_Rotatable_Bonds:                  10
##########                       Formal_Charge:          0.00999916
##########                     HBond_Acceptors:                   5
##########                        HBond_Donors:                   1
##########                         Heavy_Atoms:                  24
##########                          Grid_Score:          -32.602646
##########                     Grid_vdw_energy:          -30.672419
##########                      Grid_es_energy:           -1.930227
##########           Internal_energy_repulsive:           17.728699

@<TRIPOS>MOLECULE
ZINC000433533595
 49 50 1 0 0
SMALL
USER_CHARGES


@<TRIPOS>ATOM
      1 C1         -9.2366   -0.7134   67.5093 C.3     1  ZINC000433533595   -0.1500
      2 C2         -8.6009    0.0121   66.3218 C.3     1  ZINC000433533595   -0.1200
      3 C3         -9.4575   -0.2059   65.0729 C.3     1  ZINC000433533595   -0.1300
      4 C4         -8.8023    0.4888   63.8775 C.3     1  ZINC000433533595    0.1000
      5 N5         -9.5467    0.1667   62.6574 N.am    1  ZINC000433533595   -0.5500
      6 C6         -9.3941   -1.0382   62.0732 C.2     1  ZINC000433533595    0.5100
      7 O7         -8.6401   -1.8564   62.5578 O.2     1  ZINC000433533595   -0.5100
      8 C8        -10.1529   -1.3665   60.8295 C.2     1  ZINC000433533595    0.5000
      9 O9        -11.3608   -1.2482   60.8065 O.2     1  ZINC000433533595   -0.4900
     10 N10        -9.4966   -1.7941   59.7329 N.am    1  ZINC000433533595   -0.6300
     11 C11       -10.2072   -2.1016   58.5680 C.ar    1  ZINC000433533595    0.1200
     12 C12       -11.0436   -3.2083   58.5350 C.ar    1  ZINC000433533595   -0.0600
     13 C13       -11.7450   -3.5100   57.3820 C.ar    1  ZINC000433533595   -0.1100
     14 Br14      -12.8849   -5.0182   57.3388 Br      1  ZINC000433533595   -0.0400
     15 C15       -11.6151   -2.7106   56.2605 C.ar    1  ZINC000433533595   -0.0600
     16 C16       -10.7834   -1.6062   56.2862 C.ar    1  ZINC000433533595   -0.1900
     17 C17       -10.0817   -1.2938   57.4388 C.ar    1  ZINC000433533595    0.1300
     18 O18        -9.2636   -0.2079   57.4653 O.3     1  ZINC000433533595   -0.3100
     19 C19        -9.8277    1.0395   57.0559 C.3     1  ZINC000433533595    0.0800
     20 C20       -10.4210    1.7544   58.2715 C.3     1  ZINC000433533595   -0.1500
     21 C21        -8.7366    1.9127   56.4331 C.3     1  ZINC000433533595   -0.1800
     22 C22       -10.4569    1.1545   62.0725 C.3     1  ZINC000433533595    0.0600
     23 C23       -11.9259    1.0995   62.4964 C.3     1  ZINC000433533595   -0.1900
     24 C24       -11.0256    2.2286   63.0020 C.3     1  ZINC000433533595   -0.1800
     25 H25        -9.2985   -1.7799   67.2928 H       1  ZINC000433533595    0.0500
     26 H26        -8.6263   -0.5581   68.3990 H       1  ZINC000433533595    0.0500
     27 H27       -10.2380   -0.3190   67.6822 H       1  ZINC000433533595    0.0500
     28 H28        -8.5390    1.0786   66.5382 H       1  ZINC000433533595    0.0700
     29 H29        -7.5994   -0.3823   66.1488 H       1  ZINC000433533595    0.0600
     30 H30        -9.5411   -1.2738   64.8715 H       1  ZINC000433533595    0.0600
     31 H31       -10.4508    0.2119   65.2362 H       1  ZINC000433533595    0.0700
     32 H32        -8.8112    1.5674   64.0344 H       1  ZINC000433533595    0.1100
     33 H33        -7.7731    0.1447   63.7766 H       1  ZINC000433533595    0.0800
     34 H34        -8.5314   -1.8888   59.7514 H       1  ZINC000433533595    0.4300
     35 H35       -11.1464   -3.8340   59.4093 H       1  ZINC000433533595    0.1600
     36 H36       -12.1645   -2.9502   55.3620 H       1  ZINC000433533595    0.1400
     37 H37       -10.6843   -0.9845   55.4087 H       1  ZINC000433533595    0.1500
     38 H38       -10.6126    0.8597   56.3212 H       1  ZINC000433533595    0.0800
     39 H39        -9.6361    1.9341   59.0061 H       1  ZINC000433533595    0.0700
     40 H40       -10.8513    2.7059   57.9592 H       1  ZINC000433533595    0.0800
     41 H41       -11.1984    1.1323   58.7152 H       1  ZINC000433533595    0.0700
     42 H42        -7.9517    2.0925   57.1677 H       1  ZINC000433533595    0.0700
     43 H43        -8.3139    1.4034   55.5670 H       1  ZINC000433533595    0.0600
     44 H44        -9.1669    2.8642   56.1208 H       1  ZINC000433533595    0.0800
     45 H45       -10.2400    1.4425   61.0438 H       1  ZINC000433533595    0.1400
     46 H46       -12.6759    1.3512   61.7466 H       1  ZINC000433533595    0.0900
     47 H47       -12.2152    0.3285   63.2105 H       1  ZINC000433533595    0.1400
     48 H48       -10.7225    2.2003   64.0485 H       1  ZINC000433533595    0.1000
     49 H49       -11.1833    3.2231   62.5846 H       1  ZINC000433533595    0.1000
@<TRIPOS>BOND
     1     1     2    1
     2     1    25    1
     3     1    26    1
     4     1    27    1
     5     2     3    1
     6     2    28    1
     7     2    29    1
     8     3     4    1
     9     3    30    1
    10     3    31    1
    11     4     5    1
    12     4    32    1
    13     4    33    1
    14     5     6   am
    15     5    22    1
    16     6     7    2
    17     6     8    1
    18     8     9    2
    19     8    10   am
    20    10    11    1
    21    10    34    1
    22    11    17   ar
    23    11    12   ar
    24    12    13   ar
    25    12    35    1
    26    13    14    1
    27    13    15   ar
    28    15    16   ar
    29    15    36    1
    30    16    17   ar
    31    16    37    1
    32    17    18    1
    33    18    19    1
    34    19    20    1
    35    19    21    1
    36    19    38    1
    37    20    39    1
    38    20    40    1
    39    20    41    1
    40    21    42    1
    41    21    43    1
    42    21    44    1
    43    22    24    1
    44    22    23    1
    45    22    45    1
    46    23    24    1
    47    23    46    1
    48    23    47    1
    49    24    48    1
    50    24    49    1
@<TRIPOS>SUBSTRUCTURE
     1 ZINC000433533595        1 TEMP              0 ****  ****    0 ROOT


##########                                Name:    ZINC000163855860
##########                DOCK_Rotatable_Bonds:                   6
##########                         Heavy_Atoms:                  28
##########                    Molecular_Weight:             398.483
##########                DOCK_Rotatable_Bonds:                   6
##########                       Formal_Charge:          -0.0100004
##########                     HBond_Acceptors:                   7
##########                        HBond_Donors:                   1
##########                         Heavy_Atoms:                  28
##########                          Grid_Score:          -32.557030
##########                     Grid_vdw_energy:          -29.726204
##########                      Grid_es_energy:           -2.830825
##########           Internal_energy_repulsive:           19.180450

@<TRIPOS>MOLECULE
ZINC000163855860
 50 53 1 0 0
SMALL
USER_CHARGES


@<TRIPOS>ATOM
      1 C1         -9.9155   -0.5711   61.5994 C.3     1  ZINC000163855860   -0.1300
      2 C2        -10.7879    0.4713   60.9485 C.ar    1  ZINC000163855860   -0.0600
      3 C3        -11.1397    1.6169   61.6448 C.ar    1  ZINC000163855860    0.1400
      4 N4        -10.6843    1.8074   62.9543 N.am    1  ZINC000163855860   -0.6700
      5 C5        -11.2280    1.1024   63.9662 C.2     1  ZINC000163855860    0.5100
      6 O6        -12.1119    0.3028   63.7418 O.2     1  ZINC000163855860   -0.5100
      7 C7        -10.7376    1.3076   65.3763 C.3     1  ZINC000163855860   -0.1300
      8 C8         -9.5247    0.4101   65.6301 C.3     1  ZINC000163855860   -0.1100
      9 H9         -9.7476   -0.6264   65.3768 H       1  ZINC000163855860    0.1100
     10 C10        -8.2921    0.9157   64.8464 C.3     1  ZINC000163855860    0.0600
     11 O11        -7.1615    0.6269   65.7210 O.3     1  ZINC000163855860   -0.3500
     12 C12        -7.5478    0.6923   67.0031 C.2     1  ZINC000163855860    0.4800
     13 O13        -6.8080    0.8572   67.9440 O.2     1  ZINC000163855860   -0.4500
     14 C14        -9.0494    0.5286   67.0952 C.3     1  ZINC000163855860   -0.1800
     15 C15       -11.9401    2.5792   61.0404 C.ar    1  ZINC000163855860   -0.1100
     16 C16       -12.3916    2.3962   59.7470 C.ar    1  ZINC000163855860   -0.1100
     17 C17       -12.0507    1.2566   59.0468 C.ar    1  ZINC000163855860   -0.1000
     18 C18       -11.2479    0.2841   59.6450 C.ar    1  ZINC000163855860   -0.1100
     19 C19       -10.8808   -0.9375   58.8970 C.2     1  ZINC000163855860    0.5700
     20 O20       -10.0107   -0.8926   58.0494 O.2     1  ZINC000163855860   -0.5300
     21 N21       -11.5109   -2.1005   59.1550 N.am    1  ZINC000163855860   -0.6100
     22 C22       -12.5663   -2.1767   60.1763 C.3     1  ZINC000163855860    0.1200
     23 C23       -13.8917   -2.5164   59.4765 C.3     1  ZINC000163855860   -0.0600
     24 C24       -13.6564   -3.6427   58.4926 C.2     1  ZINC000163855860   -0.1700
     25 C25       -12.4541   -4.0131   58.0128 C.2     1  ZINC000163855860   -0.1300
     26 C26       -12.5107   -5.0719   57.1120 C.2     1  ZINC000163855860   -0.1200
     27 C27       -13.7247   -5.5550   56.8676 C.2     1  ZINC000163855860   -0.2100
     28 S28       -14.9142   -4.6593   57.8006 S.3     1  ZINC000163855860    0.1100
     29 C29       -11.1572   -3.3275   58.4273 C.3     1  ZINC000163855860    0.1700
     30 H30       -10.5427   -1.3464   62.0394 H       1  ZINC000163855860    0.0700
     31 H31        -9.2601   -1.0155   60.8504 H       1  ZINC000163855860    0.0900
     32 H32        -9.3129   -0.1051   62.3791 H       1  ZINC000163855860    0.0700
     33 H33        -9.9772    2.4468   63.1337 H       1  ZINC000163855860    0.4100
     34 H34       -11.5317    1.0522   66.0779 H       1  ZINC000163855860    0.1100
     35 H35       -10.4528    2.3506   65.5138 H       1  ZINC000163855860    0.1100
     36 H36        -8.3694    1.9878   64.6656 H       1  ZINC000163855860    0.0800
     37 H37        -8.1922    0.3761   63.9046 H       1  ZINC000163855860    0.1200
     38 H38        -9.2991   -0.3762   67.6495 H       1  ZINC000163855860    0.1200
     39 H39        -9.4978    1.4013   67.5702 H       1  ZINC000163855860    0.1200
     40 H40       -12.2097    3.4731   61.5831 H       1  ZINC000163855860    0.1500
     41 H41       -13.0128    3.1476   59.2825 H       1  ZINC000163855860    0.1300
     42 H42       -12.4056    1.1173   58.0363 H       1  ZINC000163855860    0.1300
     43 H43       -12.3212   -2.9553   60.8986 H       1  ZINC000163855860    0.0800
     44 H44       -12.6537   -1.2164   60.6847 H       1  ZINC000163855860    0.1000
     45 H45       -14.2608   -1.6392   58.9450 H       1  ZINC000163855860    0.0900
     46 H46       -14.6262   -2.8285   60.2190 H       1  ZINC000163855860    0.0900
     47 H47       -11.6260   -5.4749   56.6418 H       1  ZINC000163855860    0.1400
     48 H48       -13.9461   -6.3734   56.1984 H       1  ZINC000163855860    0.1700
     49 H49       -10.5731   -3.0762   57.5419 H       1  ZINC000163855860    0.1000
     50 H50       -10.5802   -3.9876   59.0749 H       1  ZINC000163855860    0.0900
@<TRIPOS>BOND
     1     1     2    1
     2     1    30    1
     3     1    31    1
     4     1    32    1
     5     2    18   ar
     6     2     3   ar
     7     3     4    1
     8     3    15   ar
     9     4     5   am
    10     4    33    1
    11     5     6    2
    12     5     7    1
    13     7     8    1
    14     7    34    1
    15     7    35    1
    16     8     9    1
    17     8    14    1
    18     8    10    1
    19    10    11    1
    20    10    36    1
    21    10    37    1
    22    11    12    1
    23    12    13    2
    24    12    14    1
    25    14    38    1
    26    14    39    1
    27    15    16   ar
    28    15    40    1
    29    16    17   ar
    30    16    41    1
    31    17    18   ar
    32    17    42    1
    33    18    19    1
    34    19    20    2
    35    19    21   am
    36    21    29    1
    37    21    22    1
    38    22    23    1
    39    22    43    1
    40    22    44    1
    41    23    24    1
    42    23    45    1
    43    23    46    1
    44    24    28    1
    45    24    25    2
    46    25    26    1
    47    25    29    1
    48    26    27    2
    49    26    47    1
    50    27    28    1
    51    27    48    1
    52    29    49    1
    53    29    50    1
@<TRIPOS>SUBSTRUCTURE
     1 ZINC000163855860        1 TEMP              0 ****  ****    0 ROOT


##########                                Name:    ZINC000894043060
##########                DOCK_Rotatable_Bonds:                  11
##########                         Heavy_Atoms:                  26
##########                    Molecular_Weight:             396.812
##########                DOCK_Rotatable_Bonds:                  11
##########                       Formal_Charge:          -0.0199999
##########                     HBond_Acceptors:                   9
##########                        HBond_Donors:                   2
##########                         Heavy_Atoms:                  26
##########                          Grid_Score:          -32.549389
##########                     Grid_vdw_energy:          -32.034058
##########                      Grid_es_energy:           -0.515332
##########           Internal_energy_repulsive:           12.659531

@<TRIPOS>MOLECULE
ZINC000894043060
 47 47 1 0 0
SMALL
USER_CHARGES


@<TRIPOS>ATOM
      1 C1         -9.4052    3.0848   57.5570 C.3     1  ZINC000894043060   -0.1700
      2 C2         -9.4141    1.7610   56.7898 C.3     1  ZINC000894043060    0.1000
      3 H3        -10.3243    1.6926   56.1938 H       1  ZINC000894043060    0.1100
      4 N4         -9.3672    0.6461   57.7390 N.am    1  ZINC000894043060   -0.7300
      5 C5         -9.8725   -0.5546   57.3937 C.2     1  ZINC000894043060    0.5200
      6 O6        -10.3676   -0.7118   56.2977 O.2     1  ZINC000894043060   -0.5200
      7 C7         -9.8225   -1.7020   58.3695 C.3     1  ZINC000894043060   -0.1400
      8 C8        -10.9910   -1.5883   59.3507 C.3     1  ZINC000894043060   -0.0200
      9 C9        -11.6943   -2.9423   59.4654 C.3     1  ZINC000894043060   -0.1400
     10 C10       -12.7189   -3.0707   58.3678 C.2     1  ZINC000894043060    0.5200
     11 O11       -13.4966   -2.1647   58.1552 O.2     1  ZINC000894043060   -0.5200
     12 N12       -12.7710   -4.1925   57.6225 N.am    1  ZINC000894043060   -0.7300
     13 C13       -13.7659   -4.3167   56.5544 C.3     1  ZINC000894043060    0.1000
     14 H14       -14.6127   -3.6648   56.7690 H       1  ZINC000894043060    0.1200
     15 C15       -13.1355   -3.9114   55.2205 C.3     1  ZINC000894043060   -0.1700
     16 C16       -14.2468   -5.7668   56.4715 C.3     1  ZINC000894043060    0.2600
     17 F17       -15.1200   -5.9073   55.3874 F       1  ZINC000894043060   -0.1900
     18 F18       -13.1470   -6.6136   56.2972 F       1  ZINC000894043060   -0.2000
     19 C19       -10.4723   -1.1754   60.7040 C.ar    1  ZINC000894043060   -0.0600
     20 C20        -9.5513   -1.9687   61.3623 C.ar    1  ZINC000894043060   -0.1200
     21 C21        -9.0751   -1.5905   62.6036 C.ar    1  ZINC000894043060   -0.1200
     22 C22        -9.5206   -0.4178   63.1872 C.ar    1  ZINC000894043060   -0.0400
     23 Cl23       -8.9226    0.0580   64.7459 Cl      1  ZINC000894043060   -0.0800
     24 C24       -10.4424    0.3757   62.5278 C.ar    1  ZINC000894043060   -0.1100
     25 C25       -10.9135   -0.0007   61.2841 C.ar    1  ZINC000894043060   -0.0400
     26 C26        -8.1948    1.6977   55.8678 C.3     1  ZINC000894043060    0.2600
     27 F27        -8.2297    2.7733   54.9740 F       1  ZINC000894043060   -0.2000
     28 F28        -7.0265    1.7659   56.6343 F       1  ZINC000894043060   -0.1900
     29 H29        -8.4952    3.1531   58.1530 H       1  ZINC000894043060    0.0600
     30 H30        -9.4403    3.9142   56.8508 H       1  ZINC000894043060    0.0800
     31 H31       -10.2739    3.1299   58.2138 H       1  ZINC000894043060    0.0800
     32 H32        -8.9723    0.7722   58.6160 H       1  ZINC000894043060    0.4000
     33 H33        -9.8945   -2.6442   57.8265 H       1  ZINC000894043060    0.1000
     34 H34        -8.8820   -1.6705   58.9196 H       1  ZINC000894043060    0.1000
     35 H35       -11.6977   -0.8413   58.9891 H       1  ZINC000894043060    0.1000
     36 H36       -10.9598   -3.7422   59.3722 H       1  ZINC000894043060    0.1000
     37 H37       -12.1886   -3.0140   60.4342 H       1  ZINC000894043060    0.1000
     38 H38       -12.1498   -4.9177   57.7934 H       1  ZINC000894043060    0.4000
     39 H39       -12.2887   -4.5633   55.0060 H       1  ZINC000894043060    0.0700
     40 H40       -13.8758   -4.0038   54.4258 H       1  ZINC000894043060    0.0800
     41 H41       -12.7929   -2.8783   55.2796 H       1  ZINC000894043060    0.0700
     42 H42       -14.7662   -6.0306   57.3928 H       1  ZINC000894043060    0.1200
     43 H43        -9.2039   -2.8842   60.9069 H       1  ZINC000894043060    0.1200
     44 H44        -8.3559   -2.2105   63.1180 H       1  ZINC000894043060    0.1300
     45 H45       -10.7907    1.2910   62.9830 H       1  ZINC000894043060    0.1300
     46 H46       -11.6328    0.6188   60.7692 H       1  ZINC000894043060    0.1300
     47 H47        -8.2093    0.7613   55.3101 H       1  ZINC000894043060    0.1100
@<TRIPOS>BOND
     1     1     2    1
     2     1    29    1
     3     1    30    1
     4     1    31    1
     5     2     3    1
     6     2     4    1
     7     2    26    1
     8     4     5   am
     9     4    32    1
    10     5     6    2
    11     5     7    1
    12     7     8    1
    13     7    33    1
    14     7    34    1
    15     8     9    1
    16     8    19    1
    17     8    35    1
    18     9    10    1
    19     9    36    1
    20     9    37    1
    21    10    11    2
    22    10    12   am
    23    12    13    1
    24    12    38    1
    25    13    14    1
    26    13    15    1
    27    13    16    1
    28    15    39    1
    29    15    40    1
    30    15    41    1
    31    16    17    1
    32    16    18    1
    33    16    42    1
    34    19    25   ar
    35    19    20   ar
    36    20    21   ar
    37    20    43    1
    38    21    22   ar
    39    21    44    1
    40    22    23    1
    41    22    24   ar
    42    24    25   ar
    43    24    45    1
    44    25    46    1
    45    26    27    1
    46    26    28    1
    47    26    47    1
@<TRIPOS>SUBSTRUCTURE
     1 ZINC000894043060        1 TEMP              0 ****  ****    0 ROOT


##########                                Name:    ZINC000538774026
##########                DOCK_Rotatable_Bonds:                  10
##########                         Heavy_Atoms:                  29
##########                    Molecular_Weight:             414.496
##########                DOCK_Rotatable_Bonds:                  10
##########                       Formal_Charge:            0.049999
##########                     HBond_Acceptors:                   9
##########                        HBond_Donors:                   2
##########                         Heavy_Atoms:                  29
##########                          Grid_Score:          -32.545261
##########                     Grid_vdw_energy:          -31.760342
##########                      Grid_es_energy:           -0.784919
##########           Internal_energy_repulsive:           26.527527

@<TRIPOS>MOLECULE
ZINC000538774026
 61 62 1 0 0
SMALL
USER_CHARGES


@<TRIPOS>ATOM
      1 C1        -10.8963    1.8555   64.5179 C.3     1  ZINC000538774026   -0.1500
      2 C2        -11.1245    0.6573   63.5941 C.3     1  ZINC000538774026   -0.1100
      3 C3        -12.6090    0.5649   63.2359 C.3     1  ZINC000538774026   -0.1400
      4 C4        -10.3016    0.8346   62.3165 C.3     1  ZINC000538774026    0.1400
      5 N5        -10.3205   -0.4116   61.5465 N.pl3   1  ZINC000538774026   -0.3400
      6 N6         -9.8734   -1.6623   61.9912 N.2     1  ZINC000538774026   -0.2500
      7 C7        -10.0510   -2.5299   61.0280 C.2     1  ZINC000538774026    0.0500
      8 C8        -10.6186   -1.8631   59.9326 C.2     1  ZINC000538774026    0.0800
      9 N9        -10.9651   -2.4436   58.6970 N.am    1  ZINC000538774026   -0.6600
     10 C10       -12.1362   -3.0973   58.5644 C.2     1  ZINC000538774026    0.7100
     11 O11       -12.8944   -3.1845   59.5111 O.2     1  ZINC000538774026   -0.5700
     12 N12       -12.4670   -3.6542   57.3825 N.am    1  ZINC000538774026   -0.7300
     13 C13       -13.7393   -4.3662   57.2388 C.3     1  ZINC000538774026    0.1600
     14 C14       -14.8274   -3.3831   56.8022 C.3     1  ZINC000538774026   -0.1300
     15 C15       -14.4399   -2.7558   55.4616 C.3     1  ZINC000538774026   -0.1000
     16 C16       -14.2929   -3.8551   54.4076 C.3     1  ZINC000538774026   -0.0800
     17 C17       -13.9112   -3.2371   53.0872 C.2     1  ZINC000538774026    0.4700
     18 O18       -12.7464   -3.1330   52.7832 O.2     1  ZINC000538774026   -0.5000
     19 O19       -14.8651   -2.8025   52.2489 O.3     1  ZINC000538774026   -0.3500
     20 C20       -14.6824   -1.4838   51.6691 C.3     1  ZINC000538774026    0.1200
     21 C21       -14.0940   -0.5413   52.7211 C.3     1  ZINC000538774026   -0.1800
     22 C22       -13.7272   -1.5784   50.4777 C.3     1  ZINC000538774026   -0.1400
     23 C23       -16.0335   -0.9422   51.1978 C.3     1  ZINC000538774026   -0.1800
     24 C24       -13.2048   -4.8380   54.8442 C.3     1  ZINC000538774026   -0.1100
     25 C25       -13.5923   -5.4655   56.1848 C.3     1  ZINC000538774026   -0.1300
     26 C26       -10.7803   -0.5602   60.2769 C.2     1  ZINC000538774026   -0.0500
     27 C27       -11.3567    0.5260   59.4057 C.3     1  ZINC000538774026    0.3500
     28 F28       -12.2933    1.2634   60.1380 F       1  ZINC000538774026   -0.1900
     29 F29       -10.3296    1.3730   58.9756 F       1  ZINC000538774026   -0.1900
     30 H30       -11.4826    1.7293   65.4281 H       1  ZINC000538774026    0.0600
     31 H31        -9.8388    1.9213   64.7731 H       1  ZINC000538774026    0.0600
     32 H32       -11.2053    2.7694   64.0106 H       1  ZINC000538774026    0.0600
     33 H33       -10.8156   -0.2566   64.1014 H       1  ZINC000538774026    0.0800
     34 H34       -12.9179    1.4789   62.7285 H       1  ZINC000538774026    0.0600
     35 H35       -12.7715   -0.2886   62.5776 H       1  ZINC000538774026    0.0600
     36 H36       -13.1953    0.4387   64.1461 H       1  ZINC000538774026    0.0600
     37 H37       -10.7295    1.6384   61.7174 H       1  ZINC000538774026    0.1000
     38 H38        -9.2734    1.0844   62.5782 H       1  ZINC000538774026    0.1000
     39 H39        -9.8025   -3.5801   61.0694 H       1  ZINC000538774026    0.2100
     40 H40       -10.3608   -2.3730   57.9415 H       1  ZINC000538774026    0.4100
     41 H41       -11.8628   -3.5835   56.6270 H       1  ZINC000538774026    0.4000
     42 H42       -14.0154   -4.8132   58.1938 H       1  ZINC000538774026    0.1000
     43 H43       -15.7739   -3.9129   56.6953 H       1  ZINC000538774026    0.0800
     44 H44       -14.9321   -2.6001   57.5531 H       1  ZINC000538774026    0.0800
     45 H45       -15.2151   -2.0555   55.1506 H       1  ZINC000538774026    0.0700
     46 H46       -13.4933   -2.2261   55.5685 H       1  ZINC000538774026    0.0700
     47 H47       -15.2395   -4.3847   54.3007 H       1  ZINC000538774026    0.1100
     48 H48       -13.1315   -0.9272   53.0569 H       1  ZINC000538774026    0.0600
     49 H49       -13.9568    0.4486   52.2858 H       1  ZINC000538774026    0.0700
     50 H50       -14.7745   -0.4740   53.5698 H       1  ZINC000538774026    0.0800
     51 H51       -14.1462   -2.2498   49.7284 H       1  ZINC000538774026    0.0700
     52 H52       -13.5899   -0.5885   50.0426 H       1  ZINC000538774026    0.0800
     53 H53       -12.7646   -1.9643   50.8135 H       1  ZINC000538774026    0.0700
     54 H54       -16.7140   -0.8749   52.0466 H       1  ZINC000538774026    0.0800
     55 H55       -15.8963    0.0477   50.7626 H       1  ZINC000538774026    0.0700
     56 H56       -16.4526   -1.6137   50.4484 H       1  ZINC000538774026    0.0600
     57 H57       -13.1001   -5.6211   54.0933 H       1  ZINC000538774026    0.0800
     58 H58       -12.2582   -4.3083   54.9511 H       1  ZINC000538774026    0.0600
     59 H59       -12.8171   -6.1657   56.4957 H       1  ZINC000538774026    0.0800
     60 H60       -14.5389   -5.9952   56.0778 H       1  ZINC000538774026    0.0900
     61 H61       -11.8440    0.0774   58.5401 H       1  ZINC000538774026    0.1300
@<TRIPOS>BOND
     1     1     2    1
     2     1    30    1
     3     1    31    1
     4     1    32    1
     5     2     3    1
     6     2     4    1
     7     2    33    1
     8     3    34    1
     9     3    35    1
    10     3    36    1
    11     4     5    1
    12     4    37    1
    13     4    38    1
    14     5    26    1
    15     5     6    1
    16     6     7    2
    17     7     8    1
    18     7    39    1
    19     8     9    1
    20     8    26    2
    21     9    10   am
    22     9    40    1
    23    10    11    2
    24    10    12   am
    25    12    13    1
    26    12    41    1
    27    13    25    1
    28    13    14    1
    29    13    42    1
    30    14    15    1
    31    14    43    1
    32    14    44    1
    33    15    16    1
    34    15    45    1
    35    15    46    1
    36    16    17    1
    37    16    24    1
    38    16    47    1
    39    17    18    2
    40    17    19    1
    41    19    20    1
    42    20    21    1
    43    20    22    1
    44    20    23    1
    45    21    48    1
    46    21    49    1
    47    21    50    1
    48    22    51    1
    49    22    52    1
    50    22    53    1
    51    23    54    1
    52    23    55    1
    53    23    56    1
    54    24    25    1
    55    24    57    1
    56    24    58    1
    57    25    59    1
    58    25    60    1
    59    26    27    1
    60    27    28    1
    61    27    29    1
    62    27    61    1
@<TRIPOS>SUBSTRUCTURE
     1 ZINC000538774026        1 TEMP              0 ****  ****    0 ROOT


##########                                Name:    ZINC000054627026
##########                DOCK_Rotatable_Bonds:                   5
##########                         Heavy_Atoms:                  28
##########                    Molecular_Weight:              370.37
##########                DOCK_Rotatable_Bonds:                   5
##########                       Formal_Charge:         6.85453e-07
##########                     HBond_Acceptors:                   8
##########                        HBond_Donors:                   2
##########                         Heavy_Atoms:                  28
##########                          Grid_Score:          -32.533386
##########                     Grid_vdw_energy:          -30.357405
##########                      Grid_es_energy:           -2.175981
##########           Internal_energy_repulsive:            6.145056

@<TRIPOS>MOLECULE
ZINC000054627026
 42 46 1 0 0
SMALL
USER_CHARGES


@<TRIPOS>ATOM
      1 O1         -1.7606    2.4535   50.5145 O.2     1  ZINC000054627026   -0.5200
      2 C2         -2.9428    2.6758   50.3366 C.2     1  ZINC000054627026    0.6100
      3 N3         -3.4258    2.7912   49.0837 N.am    1  ZINC000054627026   -0.6500
      4 C4         -2.5651    2.6608   47.9867 C.ar    1  ZINC000054627026    0.1400
      5 C5         -1.4610    3.5024   47.8687 C.ar    1  ZINC000054627026   -0.0900
      6 C6         -0.6057    3.3844   46.7940 C.ar    1  ZINC000054627026   -0.0900
      7 C7         -0.8425    2.4230   45.8223 C.ar    1  ZINC000054627026    0.0500
      8 N8         -0.1916    2.0608   44.6558 N.pl3   1  ZINC000054627026   -0.5900
      9 C9         -0.9007    1.0269   44.1011 C.2     1  ZINC000054627026    0.3700
     10 C10        -0.5545    0.3389   42.8486 C.2     1  ZINC000054627026    0.0200
     11 C11        -1.2359   -0.7025   42.2924 C.2     1  ZINC000054627026   -0.1200
     12 C12        -0.5581   -1.0431   41.1079 C.2     1  ZINC000054627026   -0.2200
     13 C13         0.4927   -0.2040   40.9974 C.2     1  ZINC000054627026   -0.0100
     14 O14         0.4889    0.6318   42.0468 O.3     1  ZINC000054627026   -0.1700
     15 N15        -1.9363    0.7435   44.8584 N.2     1  ZINC000054627026   -0.4600
     16 C16        -1.9545    1.5688   45.9329 C.ar    1  ZINC000054627026    0.0700
     17 C17        -2.8125    1.6941   47.0300 C.ar    1  ZINC000054627026   -0.0900
     18 C18        -3.8494    2.8132   51.4919 C.2     1  ZINC000054627026   -0.1000
     19 C19        -3.4707    2.8511   52.8041 C.2     1  ZINC000054627026    0.1000
     20 N20        -4.6003    2.9850   53.5327 N.pl3   1  ZINC000054627026   -0.3100
     21 C21        -4.6898    3.0673   54.9296 C.ar    1  ZINC000054627026    0.1300
     22 C22        -3.5383    3.0251   55.7040 C.ar    1  ZINC000054627026   -0.1200
     23 C23        -3.6295    3.1068   57.0797 C.ar    1  ZINC000054627026   -0.1000
     24 C24        -4.8662    3.2302   57.6860 C.ar    1  ZINC000054627026   -0.1100
     25 C25        -6.0149    3.2720   56.9173 C.ar    1  ZINC000054627026   -0.1000
     26 C26        -5.9295    3.1969   55.5408 C.ar    1  ZINC000054627026   -0.1000
     27 N27        -5.6662    3.0265   52.6226 N.2     1  ZINC000054627026   -0.0500
     28 N28        -5.1874    2.9282   51.4315 N.2     1  ZINC000054627026   -0.2000
     29 H29        -4.3696    2.9644   48.9417 H       1  ZINC000054627026    0.4200
     30 H30        -1.2745    4.2520   48.6234 H       1  ZINC000054627026    0.1500
     31 H31         0.2482    4.0402   46.7084 H       1  ZINC000054627026    0.1300
     32 H32         0.6149    2.4634   44.2976 H       1  ZINC000054627026    0.4300
     33 H33        -2.1240   -1.1750   42.6855 H       1  ZINC000054627026    0.1600
     34 H34        -0.8278   -1.8284   40.4173 H       1  ZINC000054627026    0.1600
     35 H35         1.2155   -0.2032   40.1949 H       1  ZINC000054627026    0.2100
     36 H36        -3.6666    1.0402   47.1281 H       1  ZINC000054627026    0.1400
     37 H37        -2.4624    2.7861   53.1855 H       1  ZINC000054627026    0.2100
     38 H38        -2.5721    2.9280   55.2311 H       1  ZINC000054627026    0.1400
     39 H39        -2.7341    3.0740   57.6826 H       1  ZINC000054627026    0.1400
     40 H40        -4.9351    3.2935   58.7618 H       1  ZINC000054627026    0.1400
     41 H41        -6.9794    3.3681   57.3936 H       1  ZINC000054627026    0.1400
     42 H42        -6.8271    3.2297   54.9410 H       1  ZINC000054627026    0.1400
@<TRIPOS>BOND
     1     1     2    2
     2     2     3   am
     3     2    18    1
     4     3     4    1
     5     3    29    1
     6     4    17   ar
     7     4     5   ar
     8     5     6   ar
     9     5    30    1
    10     6     7   ar
    11     6    31    1
    12     7    16   ar
    13     7     8    1
    14     8     9    1
    15     8    32    1
    16     9    10    1
    17     9    15    2
    18    10    14    1
    19    10    11    2
    20    11    12    1
    21    11    33    1
    22    12    13    2
    23    12    34    1
    24    13    14    1
    25    13    35    1
    26    15    16    1
    27    16    17   ar
    28    17    36    1
    29    18    28    1
    30    18    19    2
    31    19    20    1
    32    19    37    1
    33    20    21    1
    34    20    27    1
    35    21    26   ar
    36    21    22   ar
    37    22    23   ar
    38    22    38    1
    39    23    24   ar
    40    23    39    1
    41    24    25   ar
    42    24    40    1
    43    25    26   ar
    44    25    41    1
    45    26    42    1
    46    27    28    2
@<TRIPOS>SUBSTRUCTURE
     1 ZINC000054627026        1 TEMP              0 ****  ****    0 ROOT


##########                                Name:    ZINC000450219577
##########                DOCK_Rotatable_Bonds:                   8
##########                         Heavy_Atoms:                  26
##########                    Molecular_Weight:             353.421
##########                DOCK_Rotatable_Bonds:                   8
##########                       Formal_Charge:          -0.0199997
##########                     HBond_Acceptors:                   6
##########                        HBond_Donors:                   1
##########                         Heavy_Atoms:                  26
##########                          Grid_Score:          -32.484756
##########                     Grid_vdw_energy:          -32.414124
##########                      Grid_es_energy:           -0.070634
##########           Internal_energy_repulsive:           15.788906

@<TRIPOS>MOLECULE
ZINC000450219577
 49 51 1 0 0
SMALL
USER_CHARGES


@<TRIPOS>ATOM
      1 C1        -13.9600   -2.3326   53.6495 C.3     1  ZINC000450219577   -0.1800
      2 C2        -12.5998   -1.7768   54.0763 C.3     1  ZINC000450219577    0.1200
      3 C3        -11.5184   -2.8310   53.8311 C.3     1  ZINC000450219577   -0.1800
      4 C4        -12.2830   -0.5219   53.2604 C.3     1  ZINC000450219577   -0.1400
      5 O5        -12.6361   -1.4399   55.4881 O.3     1  ZINC000450219577   -0.3400
      6 C6        -11.4634   -1.4229   56.1409 C.2     1  ZINC000450219577    0.4700
      7 O7        -10.6061   -0.6334   55.8223 O.2     1  ZINC000450219577   -0.5000
      8 C8        -11.2162   -2.3885   57.2712 C.3     1  ZINC000450219577    0.2000
      9 H9        -10.3128   -2.9633   57.0670 H       1  ZINC000450219577    0.1400
     10 N10       -11.0489   -1.6440   58.5218 N.am    1  ZINC000450219577   -0.7100
     11 C11       -10.5021   -2.2459   59.5965 C.2     1  ZINC000450219577    0.5800
     12 O12       -10.1464   -3.4062   59.5278 O.2     1  ZINC000450219577   -0.5200
     13 C13       -10.3349   -1.4952   60.8590 C.ar    1  ZINC000450219577   -0.2500
     14 C14       -11.0861   -0.3427   61.1156 C.ar    1  ZINC000450219577    0.1900
     15 N15       -10.9049    0.2972   62.2575 N.ar    1  ZINC000450219577   -0.5100
     16 C16       -10.0327   -0.1354   63.1468 C.ar    1  ZINC000450219577    0.3800
     17 C17        -9.8627    0.6296   64.4340 C.3     1  ZINC000450219577   -0.1100
     18 C18        -9.2400   -0.1111   65.6191 C.3     1  ZINC000450219577   -0.1500
     19 C19        -8.4356    0.9583   64.8773 C.3     1  ZINC000450219577   -0.1500
     20 N20        -9.3049   -1.2165   62.9459 N.ar    1  ZINC000450219577   -0.5200
     21 C21        -9.4252   -1.9203   61.8339 C.ar    1  ZINC000450219577    0.2200
     22 C22       -12.3899   -3.3253   57.3975 C.ar    1  ZINC000450219577   -0.1100
     23 C23       -12.2995   -4.6160   56.9111 C.ar    1  ZINC000450219577   -0.1000
     24 C24       -13.3761   -5.4753   57.0271 C.ar    1  ZINC000450219577   -0.1200
     25 C25       -14.5430   -5.0439   57.6298 C.ar    1  ZINC000450219577   -0.1100
     26 C26       -14.6330   -3.7535   58.1170 C.ar    1  ZINC000450219577   -0.1200
     27 C27       -13.5549   -2.8955   58.0049 C.ar    1  ZINC000450219577   -0.0800
     28 H28       -14.1857   -3.2267   54.2306 H       1  ZINC000450219577    0.0800
     29 H29       -14.7303   -1.5815   53.8241 H       1  ZINC000450219577    0.0600
     30 H30       -13.9327   -2.5855   52.5895 H       1  ZINC000450219577    0.0700
     31 H31       -11.4912   -3.0839   52.7712 H       1  ZINC000450219577    0.0700
     32 H32       -10.5494   -2.4350   54.1351 H       1  ZINC000450219577    0.0600
     33 H33       -11.7442   -3.7251   54.4123 H       1  ZINC000450219577    0.0800
     34 H34       -13.0534    0.2292   53.4351 H       1  ZINC000450219577    0.0700
     35 H35       -11.3140   -0.1259   53.5645 H       1  ZINC000450219577    0.0700
     36 H36       -12.2558   -0.7747   52.2005 H       1  ZINC000450219577    0.0800
     37 H37       -11.3316   -0.7177   58.5764 H       1  ZINC000450219577    0.4100
     38 H38       -11.8021    0.0181   60.3919 H       1  ZINC000450219577    0.1700
     39 H39       -10.6386    1.3639   64.6505 H       1  ZINC000450219577    0.1300
     40 H40        -9.6064    0.1357   66.6156 H       1  ZINC000450219577    0.1000
     41 H41        -8.9533   -1.1518   65.4677 H       1  ZINC000450219577    0.1100
     42 H42        -7.6198    0.6212   64.2379 H       1  ZINC000450219577    0.1000
     43 H43        -8.2728    1.9086   65.3857 H       1  ZINC000450219577    0.1100
     44 H44        -8.8256   -2.8046   61.6765 H       1  ZINC000450219577    0.1800
     45 H45       -11.3879   -4.9531   56.4403 H       1  ZINC000450219577    0.1200
     46 H46       -13.3057   -6.4835   56.6464 H       1  ZINC000450219577    0.1200
     47 H47       -15.3843   -5.7150   57.7197 H       1  ZINC000450219577    0.1300
     48 H48       -15.5448   -3.4163   58.5876 H       1  ZINC000450219577    0.1300
     49 H49       -13.6253   -1.8873   58.3855 H       1  ZINC000450219577    0.1300
@<TRIPOS>BOND
     1     1     2    1
     2     1    28    1
     3     1    29    1
     4     1    30    1
     5     2     3    1
     6     2     4    1
     7     2     5    1
     8     3    31    1
     9     3    32    1
    10     3    33    1
    11     4    34    1
    12     4    35    1
    13     4    36    1
    14     5     6    1
    15     6     7    2
    16     6     8    1
    17     8     9    1
    18     8    10    1
    19     8    22    1
    20    10    11   am
    21    10    37    1
    22    11    12    2
    23    11    13    1
    24    13    21   ar
    25    13    14   ar
    26    14    15   ar
    27    14    38    1
    28    15    16   ar
    29    16    17    1
    30    16    20   ar
    31    17    19    1
    32    17    18    1
    33    17    39    1
    34    18    19    1
    35    18    40    1
    36    18    41    1
    37    19    42    1
    38    19    43    1
    39    20    21   ar
    40    21    44    1
    41    22    27   ar
    42    22    23   ar
    43    23    24   ar
    44    23    45    1
    45    24    25   ar
    46    24    46    1
    47    25    26   ar
    48    25    47    1
    49    26    27   ar
    50    26    48    1
    51    27    49    1
@<TRIPOS>SUBSTRUCTURE
     1 ZINC000450219577        1 TEMP              0 ****  ****    0 ROOT


##########                                Name:    ZINC001058079801
##########                DOCK_Rotatable_Bonds:                   7
##########                         Heavy_Atoms:                  24
##########                    Molecular_Weight:             349.457
##########                DOCK_Rotatable_Bonds:                   7
##########                       Formal_Charge:           0.0200001
##########                     HBond_Acceptors:                   8
##########                        HBond_Donors:                   0
##########                         Heavy_Atoms:                  24
##########                          Grid_Score:          -32.470970
##########                     Grid_vdw_energy:          -30.258129
##########                      Grid_es_energy:           -2.212842
##########           Internal_energy_repulsive:           25.570532

@<TRIPOS>MOLECULE
ZINC001058079801
 47 49 1 0 0
SMALL
USER_CHARGES


@<TRIPOS>ATOM
      1 C1        -12.9915   -2.9202   53.4626 C.3     1  ZINC001058079801   -0.1500
      2 C2        -12.0307   -3.3320   54.5799 C.3     1  ZINC001058079801   -0.1200
      3 C3        -12.8307   -3.8707   55.7676 C.3     1  ZINC001058079801   -0.0300
      4 C4        -11.9546   -3.8954   56.9936 C.2     1  ZINC001058079801    0.2900
      5 N5        -11.1357   -4.8825   57.2138 N.2     1  ZINC001058079801   -0.4800
      6 S6        -10.3551   -4.5167   58.6784 S.3     1  ZINC001058079801    0.1900
      7 C7        -11.1924   -3.0292   58.9127 C.2     1  ZINC001058079801    0.2700
      8 N8        -11.0534   -2.1411   59.9639 N.3     1  ZINC001058079801   -0.4300
      9 C9        -12.2992   -2.0387   60.7346 C.3     1  ZINC001058079801    0.0700
     10 C10       -12.0665   -1.1641   61.9688 C.3     1  ZINC001058079801   -0.1300
     11 C11       -11.6043    0.2261   61.5233 C.3     1  ZINC001058079801    0.1300
     12 N12       -11.3241    1.0497   62.7020 N.am    1  ZINC001058079801   -0.6100
     13 C13       -12.0322    2.3176   62.8949 C.3     1  ZINC001058079801    0.0700
     14 C14       -10.4149    0.6409   63.6091 C.2     1  ZINC001058079801    0.5200
     15 O15        -9.8298   -0.4095   63.4503 O.2     1  ZINC001058079801   -0.5300
     16 C16       -10.1254    1.4890   64.8208 C.3     1  ZINC001058079801   -0.0600
     17 C17        -9.3065    0.6950   65.8056 C.2     1  ZINC001058079801   -0.1900
     18 C18        -7.9872    0.3950   65.7430 C.2     1  ZINC001058079801   -0.0400
     19 O19        -7.7094   -0.3255   66.8386 O.3     1  ZINC001058079801    0.1000
     20 N20        -8.6905   -0.4832   67.5276 N.2     1  ZINC001058079801   -0.3600
     21 C21        -9.7363    0.0960   67.0122 C.2     1  ZINC001058079801    0.0000
     22 C22       -10.3324    0.0871   60.6821 C.3     1  ZINC001058079801   -0.1200
     23 C23       -10.6153   -0.8237   59.4852 C.3     1  ZINC001058079801    0.0400
     24 N24       -11.9892   -2.9192   57.8707 N.2     1  ZINC001058079801   -0.5300
     25 H25       -12.4217   -2.5363   52.6164 H       1  ZINC001058079801    0.0600
     26 H26       -13.5732   -3.7859   53.1462 H       1  ZINC001058079801    0.0600
     27 H27       -13.6642   -2.1448   53.8293 H       1  ZINC001058079801    0.0600
     28 H28       -11.3581   -4.1073   54.2131 H       1  ZINC001058079801    0.0700
     29 H29       -11.4490   -2.4662   54.8963 H       1  ZINC001058079801    0.0700
     30 H30       -13.6909   -3.2262   55.9487 H       1  ZINC001058079801    0.1000
     31 H31       -13.1741   -4.8812   55.5460 H       1  ZINC001058079801    0.0900
     32 H32       -13.0748   -1.5912   60.1133 H       1  ZINC001058079801    0.0600
     33 H33       -12.6146   -3.0335   61.0488 H       1  ZINC001058079801    0.1000
     34 H34       -12.9954   -1.0755   62.5323 H       1  ZINC001058079801    0.0800
     35 H35       -11.3007   -1.6181   62.5975 H       1  ZINC001058079801    0.0800
     36 H36       -12.3866    0.6965   60.9278 H       1  ZINC001058079801    0.1000
     37 H37       -12.9463    2.1408   63.4615 H       1  ZINC001058079801    0.0600
     38 H38       -11.3936    3.0108   63.4425 H       1  ZINC001058079801    0.0800
     39 H39       -12.2834    2.7448   61.9240 H       1  ZINC001058079801    0.0800
     40 H40        -9.5698    2.3767   64.5185 H       1  ZINC001058079801    0.1100
     41 H41       -11.0639    1.7890   65.2869 H       1  ZINC001058079801    0.1100
     42 H42        -7.2956    0.6800   64.9640 H       1  ZINC001058079801    0.2200
     43 H43       -10.7355    0.1102   67.4215 H       1  ZINC001058079801    0.1900
     44 H44       -10.0223    1.0697   60.3263 H       1  ZINC001058079801    0.0900
     45 H45        -9.5393   -0.3472   61.2905 H       1  ZINC001058079801    0.0800
     46 H46        -9.7078   -0.9362   58.8920 H       1  ZINC001058079801    0.1000
     47 H47       -11.3989   -0.3818   58.8698 H       1  ZINC001058079801    0.0700
@<TRIPOS>BOND
     1     1     2    1
     2     1    25    1
     3     1    26    1
     4     1    27    1
     5     2     3    1
     6     2    28    1
     7     2    29    1
     8     3     4    1
     9     3    30    1
    10     3    31    1
    11     4    24    1
    12     4     5    2
    13     5     6    1
    14     6     7    1
    15     7     8    1
    16     7    24    2
    17     8    23    1
    18     8     9    1
    19     9    10    1
    20     9    32    1
    21     9    33    1
    22    10    11    1
    23    10    34    1
    24    10    35    1
    25    11    12    1
    26    11    22    1
    27    11    36    1
    28    12    13    1
    29    12    14   am
    30    13    37    1
    31    13    38    1
    32    13    39    1
    33    14    15    2
    34    14    16    1
    35    16    17    1
    36    16    40    1
    37    16    41    1
    38    17    21    1
    39    17    18    2
    40    18    19    1
    41    18    42    1
    42    19    20    1
    43    20    21    2
    44    21    43    1
    45    22    23    1
    46    22    44    1
    47    22    45    1
    48    23    46    1
    49    23    47    1
@<TRIPOS>SUBSTRUCTURE
     1 ZINC001058079801        1 TEMP              0 ****  ****    0 ROOT


##########                                Name:    ZINC001220171460
##########                DOCK_Rotatable_Bonds:                  10
##########                         Heavy_Atoms:                  25
##########                    Molecular_Weight:             383.773
##########                DOCK_Rotatable_Bonds:                  10
##########                       Formal_Charge:           0.0199996
##########                     HBond_Acceptors:                  10
##########                        HBond_Donors:                   3
##########                         Heavy_Atoms:                  25
##########                          Grid_Score:          -32.464561
##########                     Grid_vdw_energy:          -27.612684
##########                      Grid_es_energy:           -4.851876
##########           Internal_energy_repulsive:           12.744236

@<TRIPOS>MOLECULE
ZINC001220171460
 43 44 1 0 0
SMALL
USER_CHARGES


@<TRIPOS>ATOM
      1 C1        -10.6555    1.7221   58.4322 C.3     1  ZINC001220171460    0.0200
      2 O2        -11.4927    0.9291   59.2760 O.3     1  ZINC001220171460   -0.3100
      3 C3        -11.0727   -0.3353   59.5502 C.ar    1  ZINC001220171460    0.1000
      4 C4        -11.3894   -1.3731   58.6899 C.ar    1  ZINC001220171460   -0.1500
      5 C5        -10.9618   -2.6593   58.9694 C.ar    1  ZINC001220171460   -0.0600
      6 Cl6       -11.3597   -3.9586   57.8890 Cl      1  ZINC001220171460   -0.0400
      7 C7        -10.2166   -2.9119   60.1094 C.ar    1  ZINC001220171460    0.1000
      8 F8         -9.8006   -4.1687   60.3785 F       1  ZINC001220171460   -0.1200
      9 C9         -9.8970   -1.8784   60.9729 C.ar    1  ZINC001220171460   -0.1200
     10 C10       -10.3184   -0.5870   60.6940 C.ar    1  ZINC001220171460    0.1800
     11 N11        -9.9957    0.4612   61.5674 N.am    1  ZINC001220171460   -0.6700
     12 C12       -10.5469    0.5082   62.7964 C.2     1  ZINC001220171460    0.7100
     13 O13       -11.3240   -0.3585   63.1477 O.2     1  ZINC001220171460   -0.5700
     14 N14       -10.2367    1.5159   63.6360 N.am    1  ZINC001220171460   -0.7400
     15 C15       -10.8372    1.5679   64.9712 C.3     1  ZINC001220171460    0.1400
     16 C16        -9.8924    2.2990   65.9271 C.3     1  ZINC001220171460   -0.1400
     17 C17        -8.6496    1.4407   66.1715 C.3     1  ZINC001220171460    0.0500
     18 H18        -8.4997    0.7694   65.3260 H       1  ZINC001220171460    0.1000
     19 N19        -7.4752    2.3107   66.3203 N.3     1  ZINC001220171460   -0.6500
     20 C20        -6.2330    1.5270   66.2952 C.3     1  ZINC001220171460    0.0100
     21 C21        -5.2330    1.8237   65.1759 C.3     1  ZINC001220171460   -0.2000
     22 C22        -4.9281    2.2610   66.6101 C.3     1  ZINC001220171460   -0.1600
     23 C23        -8.8404    0.6187   67.4478 C.3     1  ZINC001220171460    0.4600
     24 F24       -10.2070    0.4749   67.7100 F       1  ZINC001220171460   -0.1800
     25 F25        -8.2624   -0.6442   67.2798 F       1  ZINC001220171460   -0.1800
     26 F26        -8.2261    1.2738   68.5206 F       1  ZINC001220171460   -0.1700
     27 H27        -9.6746    1.8331   58.8945 H       1  ZINC001220171460    0.0600
     28 H28       -10.5476    1.2330   57.4641 H       1  ZINC001220171460    0.0600
     29 H29       -11.1055    2.7053   58.2943 H       1  ZINC001220171460    0.1100
     30 H30       -11.9707   -1.1789   57.8007 H       1  ZINC001220171460    0.1500
     31 H31        -9.3161   -2.0769   61.8615 H       1  ZINC001220171460    0.1800
     32 H32        -9.3758    1.1526   61.2871 H       1  ZINC001220171460    0.4200
     33 H33        -9.6158    2.2066   63.3561 H       1  ZINC001220171460    0.4000
     34 H34       -11.7873    2.0998   64.9219 H       1  ZINC001220171460    0.0800
     35 H35       -11.0069    0.5538   65.3331 H       1  ZINC001220171460    0.0700
     36 H36        -9.5956    3.2511   65.4872 H       1  ZINC001220171460    0.1000
     37 H37       -10.4015    2.4792   66.8740 H       1  ZINC001220171460    0.1000
     38 H38        -7.4645    3.0281   65.6110 H       1  ZINC001220171460    0.3600
     39 H39        -6.3223    0.4933   66.6296 H       1  ZINC001220171460    0.1200
     40 H40        -4.6643    0.9853   64.7737 H       1  ZINC001220171460    0.1000
     41 H41        -5.4969    2.6006   64.4582 H       1  ZINC001220171460    0.1000
     42 H42        -4.9913    3.3255   66.8358 H       1  ZINC001220171460    0.1000
     43 H43        -4.1588    1.7103   67.1513 H       1  ZINC001220171460    0.1000
@<TRIPOS>BOND
     1     1     2    1
     2     1    27    1
     3     1    28    1
     4     1    29    1
     5     2     3    1
     6     3    10   ar
     7     3     4   ar
     8     4     5   ar
     9     4    30    1
    10     5     6    1
    11     5     7   ar
    12     7     8    1
    13     7     9   ar
    14     9    10   ar
    15     9    31    1
    16    10    11    1
    17    11    12   am
    18    11    32    1
    19    12    13    2
    20    12    14   am
    21    14    15    1
    22    14    33    1
    23    15    16    1
    24    15    34    1
    25    15    35    1
    26    16    17    1
    27    16    36    1
    28    16    37    1
    29    17    18    1
    30    17    19    1
    31    17    23    1
    32    19    20    1
    33    19    38    1
    34    20    22    1
    35    20    21    1
    36    20    39    1
    37    21    22    1
    38    21    40    1
    39    21    41    1
    40    22    42    1
    41    22    43    1
    42    23    24    1
    43    23    25    1
    44    23    26    1
@<TRIPOS>SUBSTRUCTURE
     1 ZINC001220171460        1 TEMP              0 ****  ****    0 ROOT


##########                                Name:    ZINC000288921983
##########                DOCK_Rotatable_Bonds:                   6
##########                         Heavy_Atoms:                  26
##########                    Molecular_Weight:             356.428
##########                DOCK_Rotatable_Bonds:                   6
##########                       Formal_Charge:           0.0199997
##########                     HBond_Acceptors:                   8
##########                        HBond_Donors:                   1
##########                         Heavy_Atoms:                  26
##########                          Grid_Score:          -32.456440
##########                     Grid_vdw_energy:          -31.534397
##########                      Grid_es_energy:           -0.922042
##########           Internal_energy_repulsive:           59.090836

@<TRIPOS>MOLECULE
ZINC000288921983
 50 53 1 0 0
SMALL
USER_CHARGES


@<TRIPOS>ATOM
      1 C1         -7.1373    0.8458   50.0216 C.3     1  ZINC000288921983   -0.1400
      2 C2         -7.2466    0.6299   51.5323 C.3     1  ZINC000288921983   -0.0500
      3 C3         -8.6324    0.1446   51.8715 C.ar    1  ZINC000288921983    0.3000
      4 N4         -9.5552    1.0252   52.2033 N.ar    1  ZINC000288921983   -0.5000
      5 C5        -10.7834    0.6397   52.5077 C.ar    1  ZINC000288921983    0.1300
      6 C6        -11.0934   -0.7172   52.4737 C.ar    1  ZINC000288921983    0.0500
      7 N7        -12.3810   -1.1680   52.7882 N.am    1  ZINC000288921983   -0.6700
      8 C8        -12.6031   -1.8168   53.9485 C.2     1  ZINC000288921983    0.7100
      9 O9        -11.6852   -2.0108   54.7219 O.2     1  ZINC000288921983   -0.5500
     10 N10       -13.8426   -2.2507   54.2513 N.am    1  ZINC000288921983   -0.6200
     11 C11       -14.9617   -2.0240   53.3268 C.3     1  ZINC000288921983    0.1100
     12 C12       -15.6412   -3.3661   53.0366 C.3     1  ZINC000288921983   -0.1400
     13 C13       -16.0412   -4.0269   54.3577 C.3     1  ZINC000288921983   -0.1200
     14 C14       -14.7894   -4.2909   55.1976 C.3     1  ZINC000288921983   -0.1300
     15 C15       -14.0992   -2.9647   55.5095 C.3     1  ZINC000288921983    0.2700
     16 H16       -14.7452   -2.3567   56.1427 H       1  ZINC000288921983    0.1100
     17 C17       -12.7971   -3.2280   56.2211 C.2     1  ZINC000288921983    0.1700
     18 N18       -12.0174   -4.2569   56.0463 N.2     1  ZINC000288921983   -0.2500
     19 N19       -10.9938   -4.1531   56.8190 N.2     1  ZINC000288921983   -0.2700
     20 C20       -11.0856   -3.0544   57.5129 C.2     1  ZINC000288921983    0.1800
     21 C21       -10.0939   -2.5588   58.5336 C.3     1  ZINC000288921983   -0.0300
     22 C22       -10.7140   -1.6402   59.5996 C.3     1  ZINC000288921983   -0.1200
     23 C23       -10.9996   -2.9116   60.4161 C.3     1  ZINC000288921983   -0.1400
     24 C24        -9.8240   -3.5617   59.6677 C.3     1  ZINC000288921983   -0.1200
     25 O25       -12.2243   -2.4417   57.1479 O.3     1  ZINC000288921983   -0.2200
     26 C26       -10.0895   -1.6140   52.1181 C.ar    1  ZINC000288921983    0.1600
     27 N27        -8.8876   -1.1475   51.8224 N.ar    1  ZINC000288921983   -0.5000
     28 H28        -6.1349    1.1967   49.7763 H       1  ZINC000288921983    0.0700
     29 H29        -7.3293   -0.0949   49.5053 H       1  ZINC000288921983    0.0600
     30 H30        -7.8697    1.5892   49.7069 H       1  ZINC000288921983    0.0600
     31 H31        -6.5142   -0.1135   51.8471 H       1  ZINC000288921983    0.0900
     32 H32        -7.0546    1.5705   52.0486 H       1  ZINC000288921983    0.0900
     33 H33       -11.5345    1.3668   52.7790 H       1  ZINC000288921983    0.1700
     34 H34       -13.1132   -1.0133   52.1711 H       1  ZINC000288921983    0.4100
     35 H35       -15.6797   -1.3421   53.7823 H       1  ZINC000288921983    0.0800
     36 H36       -14.5868   -1.5958   52.3972 H       1  ZINC000288921983    0.0800
     37 H37       -16.5307   -3.1996   52.4290 H       1  ZINC000288921983    0.0900
     38 H38       -14.9496   -4.0153   52.4997 H       1  ZINC000288921983    0.0700
     39 H39       -16.7133   -3.3663   54.9053 H       1  ZINC000288921983    0.0700
     40 H40       -16.5469   -4.9706   54.1531 H       1  ZINC000288921983    0.0800
     41 H41       -15.0728   -4.7827   56.1281 H       1  ZINC000288921983    0.0900
     42 H42       -14.1059   -4.9315   54.6404 H       1  ZINC000288921983    0.0900
     43 H43        -9.1873   -2.1560   58.0820 H       1  ZINC000288921983    0.1000
     44 H44        -9.9944   -0.9710   60.0713 H       1  ZINC000288921983    0.1000
     45 H45       -11.6141   -1.1261   59.2628 H       1  ZINC000288921983    0.0800
     46 H46       -10.8242   -2.7925   61.4853 H       1  ZINC000288921983    0.0700
     47 H47       -11.9646   -3.3665   60.1925 H       1  ZINC000288921983    0.1000
     48 H48       -10.0057   -4.5988   59.3859 H       1  ZINC000288921983    0.0700
     49 H49        -8.8612   -3.4178   60.1580 H       1  ZINC000288921983    0.1000
     50 H50       -10.2902   -2.6745   52.0804 H       1  ZINC000288921983    0.1800
@<TRIPOS>BOND
     1     1     2    1
     2     1    28    1
     3     1    29    1
     4     1    30    1
     5     2     3    1
     6     2    31    1
     7     2    32    1
     8     3    27   ar
     9     3     4   ar
    10     4     5   ar
    11     5     6   ar
    12     5    33    1
    13     6     7    1
    14     6    26   ar
    15     7     8   am
    16     7    34    1
    17     8     9    2
    18     8    10   am
    19    10    15    1
    20    10    11    1
    21    11    12    1
    22    11    35    1
    23    11    36    1
    24    12    13    1
    25    12    37    1
    26    12    38    1
    27    13    14    1
    28    13    39    1
    29    13    40    1
    30    14    15    1
    31    14    41    1
    32    14    42    1
    33    15    16    1
    34    15    17    1
    35    17    25    1
    36    17    18    2
    37    18    19    1
    38    19    20    2
    39    20    21    1
    40    20    25    1
    41    21    24    1
    42    21    22    1
    43    21    43    1
    44    22    23    1
    45    22    44    1
    46    22    45    1
    47    23    24    1
    48    23    46    1
    49    23    47    1
    50    24    48    1
    51    24    49    1
    52    26    27   ar
    53    26    50    1
@<TRIPOS>SUBSTRUCTURE
     1 ZINC000288921983        1 TEMP              0 ****  ****    0 ROOT


##########                                Name:    ZINC000826324849
##########                DOCK_Rotatable_Bonds:                   4
##########                         Heavy_Atoms:                  27
##########                    Molecular_Weight:             395.374
##########                DOCK_Rotatable_Bonds:                   4
##########                       Formal_Charge:           0.0400001
##########                     HBond_Acceptors:                  13
##########                        HBond_Donors:                   1
##########                         Heavy_Atoms:                  27
##########                          Grid_Score:          -32.433228
##########                     Grid_vdw_energy:          -31.114838
##########                      Grid_es_energy:           -1.318388
##########           Internal_energy_repulsive:           85.809013

@<TRIPOS>MOLECULE
ZINC000826324849
 41 44 1 0 0
SMALL
USER_CHARGES


@<TRIPOS>ATOM
      1 C1        -11.3916    0.4757   53.5415 C.3     1  ZINC000826324849   -0.0600
      2 C2        -11.7595   -0.9307   53.9390 C.2     1  ZINC000826324849    0.2000
      3 N3        -12.9226   -1.3362   54.3886 N.2     1  ZINC000826324849   -0.4600
      4 C4        -12.7856   -2.6559   54.6087 C.2     1  ZINC000826324849    0.1600
      5 C5        -13.8481   -3.5880   55.1312 C.3     1  ZINC000826324849    0.2200
      6 H6        -14.8257   -3.1125   55.0505 H       1  ZINC000826324849    0.1300
      7 C7        -13.8383   -4.8887   54.3201 C.3     1  ZINC000826324849    0.0600
      8 O8        -14.7158   -5.8343   54.9361 O.3     1  ZINC000826324849   -0.3600
      9 C9        -14.3303   -6.2152   56.2589 C.3     1  ZINC000826324849    0.0400
     10 C10       -14.3654   -4.9824   57.1694 C.3     1  ZINC000826324849    0.0800
     11 N11       -13.5713   -3.9159   56.5388 N.am    1  ZINC000826324849   -1.0100
     12 S12       -12.3998   -3.1098   57.3876 S.o2    1  ZINC000826324849    2.7100
     13 O13       -11.5401   -4.1039   57.9277 O.2     1  ZINC000826324849   -0.9300
     14 O14       -11.9427   -2.0617   56.5440 O.2     1  ZINC000826324849   -0.9300
     15 C15       -13.1892   -2.3358   58.7596 C.ar    1  ZINC000826324849   -0.5800
     16 C16       -14.5211   -1.9827   58.6816 C.ar    1  ZINC000826324849   -0.0400
     17 C17       -15.1434   -1.3748   59.7573 C.ar    1  ZINC000826324849   -0.0800
     18 C18       -14.4361   -1.1167   60.9167 C.ar    1  ZINC000826324849   -0.1100
     19 C19       -13.1010   -1.4659   61.0067 C.ar    1  ZINC000826324849    0.1300
     20 F20       -12.4099   -1.2139   62.1399 F       1  ZINC000826324849   -0.1100
     21 C21       -12.4713   -2.0846   59.9265 C.ar    1  ZINC000826324849    0.0500
     22 C22       -11.0387   -2.4627   60.0160 C.2     1  ZINC000826324849    0.1800
     23 N23       -10.0392   -1.9253   59.3454 N.2     1  ZINC000826324849   -0.2600
     24 N24        -8.9565   -2.5263   59.7025 N.pl3   1  ZINC000826324849   -0.2200
     25 N25        -9.2383   -3.4271   60.5778 N.2     1  ZINC000826324849   -0.0200
     26 N26       -10.5089   -3.4133   60.7989 N.2     1  ZINC000826324849   -0.2600
     27 N27       -11.5687   -2.9797   54.2877 N.2     1  ZINC000826324849   -0.3800
     28 O28       -10.9643   -2.0040   53.8950 O.3     1  ZINC000826324849    0.0900
     29 H29       -10.3557    0.4984   53.2031 H       1  ZINC000826324849    0.1000
     30 H30       -12.0448    0.8078   52.7346 H       1  ZINC000826324849    0.1100
     31 H31       -11.5082    1.1379   54.3993 H       1  ZINC000826324849    0.1100
     32 H32       -14.1764   -4.6865   53.3037 H       1  ZINC000826324849    0.1200
     33 H33       -12.8268   -5.2939   54.2941 H       1  ZINC000826324849    0.0600
     34 H34       -15.0225   -6.9673   56.6376 H       1  ZINC000826324849    0.1200
     35 H35       -13.3205   -6.6252   56.2401 H       1  ZINC000826324849    0.0600
     36 H36       -15.3951   -4.6476   57.2945 H       1  ZINC000826324849    0.0900
     37 H37       -13.9393   -5.2316   58.1413 H       1  ZINC000826324849    0.1100
     38 H38       -15.0789   -2.1812   57.7783 H       1  ZINC000826324849    0.1400
     39 H39       -16.1859   -1.1006   59.6910 H       1  ZINC000826324849    0.1500
     40 H40       -14.9267   -0.6412   61.7532 H       1  ZINC000826324849    0.1500
     41 H41        -8.0686   -2.3308   59.3643 H       1  ZINC000826324849    0.4800
@<TRIPOS>BOND
     1     1     2    1
     2     1    29    1
     3     1    30    1
     4     1    31    1
     5     2    28    1
     6     2     3    2
     7     3     4    1
     8     4     5    1
     9     4    27    2
    10     5     6    1
    11     5    11    1
    12     5     7    1
    13     7     8    1
    14     7    32    1
    15     7    33    1
    16     8     9    1
    17     9    10    1
    18     9    34    1
    19     9    35    1
    20    10    11    1
    21    10    36    1
    22    10    37    1
    23    11    12   am
    24    12    13    2
    25    12    14    2
    26    12    15    1
    27    15    21   ar
    28    15    16   ar
    29    16    17   ar
    30    16    38    1
    31    17    18   ar
    32    17    39    1
    33    18    19   ar
    34    18    40    1
    35    19    20    1
    36    19    21   ar
    37    21    22    1
    38    22    26    1
    39    22    23    2
    40    23    24    1
    41    24    25    1
    42    24    41    1
    43    25    26    2
    44    27    28    1
@<TRIPOS>SUBSTRUCTURE
     1 ZINC000826324849        1 TEMP              0 ****  ****    0 ROOT


##########                                Name:    ZINC000355549087
##########                DOCK_Rotatable_Bonds:                   9
##########                         Heavy_Atoms:                  23
##########                    Molecular_Weight:             336.415
##########                DOCK_Rotatable_Bonds:                   9
##########                       Formal_Charge:        -9.53674e-07
##########                     HBond_Acceptors:                   8
##########                        HBond_Donors:                   4
##########                         Heavy_Atoms:                  23
##########                          Grid_Score:          -32.427185
##########                     Grid_vdw_energy:          -32.248920
##########                      Grid_es_energy:           -0.178266
##########           Internal_energy_repulsive:           15.844028

@<TRIPOS>MOLECULE
ZINC000355549087
 43 44 1 0 0
SMALL
USER_CHARGES


@<TRIPOS>ATOM
      1 C1        -13.6693   -1.4627   52.3009 C.3     1  <0>        -0.1500
      2 C2        -14.1315   -2.3764   53.4377 C.3     1  <0>        -0.1200
      3 C3        -12.9115   -3.0000   54.1187 C.3     1  <0>        -0.1000
      4 H4        -12.1899   -2.2187   54.3576 H       1  <0>         0.0800
      5 C5        -12.2669   -4.0190   53.1770 C.3     1  <0>        -0.1500
      6 C6        -13.3491   -3.7011   55.4064 C.3     1  <0>         0.0900
      7 H7        -14.2598   -3.2350   55.7824 H       1  <0>         0.1000
      8 O8        -13.5973   -5.0822   55.1361 O.3     1  <0>        -0.3500
      9 C9        -14.3355   -5.7513   56.1604 C.3     1  <0>         0.0200
     10 C10       -12.2591   -3.5794   56.4399 C.2     1  <0>         0.5100
     11 O11       -11.1052   -3.4451   56.0912 O.2     1  <0>        -0.4800
     12 N12       -12.5663   -3.6198   57.7515 N.am    1  <0>        -0.6200
     13 C13       -11.5613   -3.5060   58.7044 C.2     1  <0>         0.2400
     14 N14       -11.5262   -2.6093   59.6378 N.2     1  <0>        -0.5000
     15 C15       -10.4905   -2.6452   60.4660 C.2     1  <0>         0.1700
     16 C16       -10.3166   -1.6814   61.5827 C.2     1  <0>        -0.1100
     17 C17        -9.2559   -1.6223   62.4406 C.2     1  <0>         0.0600
     18 N18        -9.4670   -0.6097   63.3166 N.pl3   1  <0>        -0.5400
     19 C19       -10.6713   -0.0115   63.0224 C.2     1  <0>        -0.0600
     20 C20       -11.2668    1.1244   63.7347 C.2     1  <0>         0.5900
     21 N21       -12.6007    1.1795   63.9197 N.am    1  <0>        -0.8600
     22 O22       -10.5564    2.0171   64.1584 O.2     1  <0>        -0.5300
     23 C23       -11.2122   -0.6583   61.9464 C.2     1  <0>        -0.0600
     24 C24        -9.6115   -3.6300   60.2069 C.2     1  <0>        -0.3200
     25 S25       -10.2006   -4.5342   58.8147 S.3     1  <0>         0.2500
     26 H26       -14.5384   -1.0184   51.8157 H       1  <0>         0.0600
     27 H27       -13.0353   -0.6732   52.7042 H       1  <0>         0.0600
     28 H28       -13.1051   -2.0455   51.5728 H       1  <0>         0.0600
     29 H29       -14.6956   -1.7937   54.1658 H       1  <0>         0.0600
     30 H30       -14.7655   -3.1660   53.0344 H       1  <0>         0.0700
     31 H31       -12.9886   -4.8003   52.9381 H       1  <0>         0.0700
     32 H32       -11.9552   -3.5195   52.2596 H       1  <0>         0.0600
     33 H33       -11.3978   -4.4632   53.6622 H       1  <0>         0.0500
     34 H34       -14.3965   -6.8147   55.9285 H       1  <0>         0.0900
     35 H35       -13.8324   -5.6165   57.1180 H       1  <0>         0.0500
     36 H36       -15.3406   -5.3333   56.2160 H       1  <0>         0.0500
     37 H37       -13.4890   -3.7285   58.0304 H       1  <0>         0.4200
     38 H38        -8.3939   -2.2728   62.4238 H       1  <0>         0.1800
     39 H39        -8.8677   -0.3495   64.0335 H       1  <0>         0.4200
     40 H40       -12.9943    1.9301   64.3917 H       1  <0>         0.4000
     41 H41       -13.1671    0.4686   63.5810 H       1  <0>         0.4100
     42 H42       -12.1537   -0.4308   61.4687 H       1  <0>         0.1500
     43 H43        -8.7053   -3.8329   60.7581 H       1  <0>         0.1800
@<TRIPOS>BOND
     1     1     2    1
     2     1    26    1
     3     1    27    1
     4     1    28    1
     5     2     3    1
     6     2    29    1
     7     2    30    1
     8     3     4    1
     9     3     5    1
    10     3     6    1
    11     5    31    1
    12     5    32    1
    13     5    33    1
    14     6     7    1
    15     6     8    1
    16     6    10    1
    17     8     9    1
    18     9    34    1
    19     9    35    1
    20     9    36    1
    21    10    11    2
    22    10    12   am
    23    12    13    1
    24    12    37    1
    25    13    25    1
    26    13    14    2
    27    14    15    1
    28    15    16    1
    29    15    24    2
    30    16    23    1
    31    16    17    2
    32    17    18    1
    33    17    38    1
    34    18    19    1
    35    18    39    1
    36    19    20    1
    37    19    23    2
    38    20    21   am
    39    20    22    2
    40    21    40    1
    41    21    41    1
    42    23    42    1
    43    24    25    1
    44    24    43    1
@<TRIPOS>SUBSTRUCTURE
     1 <0>         1 TEMP              0 ****  ****    0 ROOT


##########                                Name:    ZINC000459459628
##########                DOCK_Rotatable_Bonds:                   8
##########                         Heavy_Atoms:                  27
##########                    Molecular_Weight:             377.366
##########                DOCK_Rotatable_Bonds:                   8
##########                       Formal_Charge:         -0.00999984
##########                     HBond_Acceptors:                   8
##########                        HBond_Donors:                   1
##########                         Heavy_Atoms:                  27
##########                          Grid_Score:          -32.419838
##########                     Grid_vdw_energy:          -31.460527
##########                      Grid_es_energy:           -0.959309
##########           Internal_energy_repulsive:           13.121606

@<TRIPOS>MOLECULE
ZINC000459459628
 45 46 1 0 0
SMALL
USER_CHARGES


@<TRIPOS>ATOM
      1 C1        -15.1134   -1.5978   57.2276 C.3     1  ZINC000459459628   -0.1600
      2 C2        -14.1473   -2.6944   57.6806 C.3     1  ZINC000459459628    0.1600
      3 H3        -13.1210   -2.3491   57.5551 H       1  ZINC000459459628    0.1100
      4 C4        -14.3695   -3.9508   56.8360 C.3     1  ZINC000459459628   -0.0900
      5 C5        -13.9005   -3.6978   55.4263 C.ar    1  ZINC000459459628   -0.0500
      6 C6        -14.8200   -3.4279   54.4302 C.ar    1  ZINC000459459628   -0.1200
      7 C7        -14.3911   -3.1957   53.1364 C.ar    1  ZINC000459459628   -0.0900
      8 C8        -13.0425   -3.2331   52.8378 C.ar    1  ZINC000459459628   -0.1600
      9 C9        -12.1203   -3.5028   53.8351 C.ar    1  ZINC000459459628    0.1000
     10 F10       -10.8015   -3.5396   53.5444 F       1  ZINC000459459628   -0.1400
     11 C11       -12.5505   -3.7300   55.1313 C.ar    1  ZINC000459459628   -0.1500
     12 N12       -14.3887   -3.0056   59.0916 N.am    1  ZINC000459459628   -0.6200
     13 C13       -15.5727   -3.7763   59.4796 C.3     1  ZINC000459459628    0.0700
     14 C14       -13.5216   -2.5828   60.0328 C.2     1  ZINC000459459628    0.7100
     15 O15       -13.7226   -2.8396   61.2041 O.2     1  ZINC000459459628   -0.5700
     16 N16       -12.4317   -1.8751   59.6755 N.am    1  ZINC000459459628   -0.6800
     17 C17       -11.5297   -1.4352   60.6545 C.ar    1  ZINC000459459628    0.1500
     18 C18       -11.6830   -0.1848   61.2245 C.ar    1  ZINC000459459628   -0.0400
     19 C19       -10.7818    0.2496   62.2004 C.ar    1  ZINC000459459628   -0.0300
     20 C20       -10.9361    1.5434   62.7943 C.1     1  ZINC000459459628    0.2600
     21 N21       -11.0584    2.5698   63.2655 N.1     1  ZINC000459459628   -0.4100
     22 C22        -9.7305   -0.5812   62.5955 C.ar    1  ZINC000459459628   -0.0500
     23 C23        -9.5828   -1.8267   62.0230 C.ar    1  ZINC000459459628   -0.1700
     24 C24       -10.4801   -2.2615   61.0582 C.ar    1  ZINC000459459628    0.1100
     25 O25       -10.3301   -3.4895   60.4974 O.3     1  ZINC000459459628   -0.3200
     26 C26        -9.4218   -3.5947   59.3993 C.3     1  ZINC000459459628    0.4100
     27 F27        -9.3361   -4.9301   58.9913 F       1  ZINC000459459628   -0.1900
     28 F28        -9.8828   -2.8109   58.3361 F       1  ZINC000459459628   -0.1900
     29 H29       -16.1396   -1.9432   57.3531 H       1  ZINC000459459628    0.0600
     30 H30       -14.9551   -0.7029   57.8293 H       1  ZINC000459459628    0.0600
     31 H31       -14.9337   -1.3664   56.1777 H       1  ZINC000459459628    0.0700
     32 H32       -13.8058   -4.7801   57.2632 H       1  ZINC000459459628    0.0800
     33 H33       -15.4308   -4.1992   56.8267 H       1  ZINC000459459628    0.0900
     34 H34       -15.8743   -3.3989   54.6626 H       1  ZINC000459459628    0.1300
     35 H35       -15.1105   -2.9854   52.3589 H       1  ZINC000459459628    0.1300
     36 H36       -12.7078   -3.0523   51.8271 H       1  ZINC000459459628    0.1300
     37 H37       -11.8322   -3.9400   55.9098 H       1  ZINC000459459628    0.1300
     38 H38       -15.3317   -4.8393   59.4749 H       1  ZINC000459459628    0.0600
     39 H39       -15.8877   -3.4795   60.4800 H       1  ZINC000459459628    0.0700
     40 H40       -16.3794   -3.5836   58.7724 H       1  ZINC000459459628    0.0800
     41 H41       -12.2712   -1.6701   58.7411 H       1  ZINC000459459628    0.4100
     42 H42       -12.4968    0.4547   60.9160 H       1  ZINC000459459628    0.1600
     43 H43        -9.0330   -0.2476   63.3495 H       1  ZINC000459459628    0.1400
     44 H44        -8.7691   -2.4673   62.3293 H       1  ZINC000459459628    0.1500
     45 H45        -8.4366   -3.2450   59.7079 H       1  ZINC000459459628    0.1900
@<TRIPOS>BOND
     1     1     2    1
     2     1    29    1
     3     1    30    1
     4     1    31    1
     5     2     3    1
     6     2     4    1
     7     2    12    1
     8     4     5    1
     9     4    32    1
    10     4    33    1
    11     5    11   ar
    12     5     6   ar
    13     6     7   ar
    14     6    34    1
    15     7     8   ar
    16     7    35    1
    17     8     9   ar
    18     8    36    1
    19     9    10    1
    20     9    11   ar
    21    11    37    1
    22    12    13    1
    23    12    14   am
    24    13    38    1
    25    13    39    1
    26    13    40    1
    27    14    15    2
    28    14    16   am
    29    16    17    1
    30    16    41    1
    31    17    24   ar
    32    17    18   ar
    33    18    19   ar
    34    18    42    1
    35    19    20    1
    36    19    22   ar
    37    20    21    3
    38    22    23   ar
    39    22    43    1
    40    23    24   ar
    41    23    44    1
    42    24    25    1
    43    25    26    1
    44    26    27    1
    45    26    28    1
    46    26    45    1
@<TRIPOS>SUBSTRUCTURE
     1 ZINC000459459628        1 TEMP              0 ****  ****    0 ROOT


##########                                Name:    ZINC000274267583
##########                DOCK_Rotatable_Bonds:                   5
##########                         Heavy_Atoms:                  24
##########                    Molecular_Weight:             349.407
##########                DOCK_Rotatable_Bonds:                   5
##########                       Formal_Charge:           0.0300001
##########                     HBond_Acceptors:                   7
##########                        HBond_Donors:                   1
##########                         Heavy_Atoms:                  24
##########                          Grid_Score:          -32.414776
##########                     Grid_vdw_energy:          -32.517574
##########                      Grid_es_energy:            0.102799
##########           Internal_energy_repulsive:           17.019859

@<TRIPOS>MOLECULE
ZINC000274267583
 43 45 1 0 0
SMALL
USER_CHARGES


@<TRIPOS>ATOM
      1 C1        -14.1820   -5.7537   55.0707 C.3     1  ZINC000274267583    0.0200
      2 O2        -13.9033   -4.3829   55.3625 O.3     1  ZINC000274267583   -0.3100
      3 C3        -12.9833   -4.1331   56.3312 C.ar    1  ZINC000274267583    0.1900
      4 C4        -12.3490   -5.1856   56.9751 C.ar    1  ZINC000274267583   -0.2300
      5 C5        -11.4139   -4.9289   57.9591 C.ar    1  ZINC000274267583    0.0300
      6 C6        -11.1105   -3.6245   58.3027 C.ar    1  ZINC000274267583   -0.7200
      7 S7         -9.9179   -3.3006   59.5586 S.o2    1  ZINC000274267583    2.7000
      8 O8         -9.3193   -4.5499   59.8755 O.2     1  ZINC000274267583   -0.9500
      9 O9         -9.1741   -2.1706   59.1239 O.2     1  ZINC000274267583   -0.9500
     10 N10       -10.7467   -2.8231   60.9104 N.am    1  ZINC000274267583   -1.1100
     11 C11       -11.5975   -1.6312   60.8650 C.3     1  ZINC000274267583    0.2100
     12 H12       -11.3683   -1.0560   59.9680 H       1  ZINC000274267583    0.1000
     13 C13       -13.0678   -2.0559   60.8358 C.3     1  ZINC000274267583   -0.1800
     14 C14       -13.9333   -0.8142   61.0853 C.3     1  ZINC000274267583    0.0600
     15 O15       -13.6713   -0.3408   62.4071 O.3     1  ZINC000274267583   -0.3100
     16 C16       -12.3734   -0.1837   62.7797 C.ar    1  ZINC000274267583    0.1100
     17 C17       -12.0943    0.6028   63.8924 C.ar    1  ZINC000274267583   -0.1100
     18 C18       -10.7908    0.7842   64.3073 C.ar    1  ZINC000274267583   -0.1600
     19 C19        -9.7539    0.1797   63.6127 C.ar    1  ZINC000274267583    0.0900
     20 O20        -8.4683    0.3539   64.0203 O.3     1  ZINC000274267583   -0.3200
     21 C21        -8.2699    0.9198   65.3174 C.3     1  ZINC000274267583    0.0300
     22 C22       -10.0303   -0.6023   62.5027 C.ar    1  ZINC000274267583   -0.1000
     23 C23       -11.3385   -0.7834   62.0846 C.ar    1  ZINC000274267583   -0.1400
     24 C24       -11.7410   -2.5738   57.6622 C.ar    1  ZINC000274267583    0.0200
     25 C25       -12.6730   -2.8250   56.6739 C.ar    1  ZINC000274267583   -0.1700
     26 H26       -13.2682   -6.2481   54.7413 H       1  ZINC000274267583    0.0600
     27 H27       -14.5591   -6.2465   55.9668 H       1  ZINC000274267583    0.0600
     28 H28       -14.9315   -5.8119   54.2814 H       1  ZINC000274267583    0.1100
     29 H29       -12.5862   -6.2046   56.7075 H       1  ZINC000274267583    0.1400
     30 H30       -10.9199   -5.7480   58.4605 H       1  ZINC000274267583    0.1400
     31 H31       -10.6689   -3.3324   61.7323 H       1  ZINC000274267583    0.4200
     32 H32       -13.3080   -2.4815   59.8616 H       1  ZINC000274267583    0.1000
     33 H33       -13.2522   -2.7949   61.6156 H       1  ZINC000274267583    0.0900
     34 H34       -13.6811   -0.0395   60.3612 H       1  ZINC000274267583    0.0700
     35 H35       -14.9871   -1.0763   60.9913 H       1  ZINC000274267583    0.1200
     36 H36       -12.9014    1.0739   64.4338 H       1  ZINC000274267583    0.1400
     37 H37       -10.5786    1.3962   65.1714 H       1  ZINC000274267583    0.1400
     38 H38        -8.7259    1.9091   65.3559 H       1  ZINC000274267583    0.0600
     39 H39        -8.7309    0.2779   66.0682 H       1  ZINC000274267583    0.0600
     40 H40        -7.2018    1.0040   65.5176 H       1  ZINC000274267583    0.1000
     41 H41        -9.2227   -1.0728   61.9617 H       1  ZINC000274267583    0.1300
     42 H42       -11.5020   -1.5557   57.9322 H       1  ZINC000274267583    0.1500
     43 H43       -13.1651   -2.0040   56.1739 H       1  ZINC000274267583    0.1400
@<TRIPOS>BOND
     1     1     2    1
     2     1    26    1
     3     1    27    1
     4     1    28    1
     5     2     3    1
     6     3    25   ar
     7     3     4   ar
     8     4     5   ar
     9     4    29    1
    10     5     6   ar
    11     5    30    1
    12     6     7    1
    13     6    24   ar
    14     7     8    2
    15     7     9    2
    16     7    10   am
    17    10    11    1
    18    10    31    1
    19    11    12    1
    20    11    23    1
    21    11    13    1
    22    13    14    1
    23    13    32    1
    24    13    33    1
    25    14    15    1
    26    14    34    1
    27    14    35    1
    28    15    16    1
    29    16    23   ar
    30    16    17   ar
    31    17    18   ar
    32    17    36    1
    33    18    19   ar
    34    18    37    1
    35    19    20    1
    36    19    22   ar
    37    20    21    1
    38    21    38    1
    39    21    39    1
    40    21    40    1
    41    22    23   ar
    42    22    41    1
    43    24    25   ar
    44    24    42    1
    45    25    43    1
@<TRIPOS>SUBSTRUCTURE
     1 ZINC000274267583        1 TEMP              0 ****  ****    0 ROOT


##########                                Name:    ZINC001500042809
##########                DOCK_Rotatable_Bonds:                   9
##########                         Heavy_Atoms:                  24
##########                    Molecular_Weight:              346.45
##########                DOCK_Rotatable_Bonds:                   9
##########                       Formal_Charge:           0.0200001
##########                     HBond_Acceptors:                   6
##########                        HBond_Donors:                   2
##########                         Heavy_Atoms:                  24
##########                          Grid_Score:          -32.368515
##########                     Grid_vdw_energy:          -31.923864
##########                      Grid_es_energy:           -0.444650
##########           Internal_energy_repulsive:           20.950378

@<TRIPOS>MOLECULE
ZINC001500042809
 46 47 1 0 0
SMALL
USER_CHARGES


@<TRIPOS>ATOM
      1 C1         -9.5971   -2.1527   61.2286 C.3     1  ZINC001500042809    0.0200
      2 O2         -8.9913   -2.7081   60.0597 O.3     1  ZINC001500042809   -0.3100
      3 C3         -9.8244   -3.2099   59.1131 C.ar    1  ZINC001500042809    0.1600
      4 C4         -9.9613   -4.5856   58.9690 C.ar    1  ZINC001500042809   -0.1600
      5 C5        -10.8052   -5.0986   58.0094 C.ar    1  ZINC001500042809   -0.0200
      6 C6        -11.5248   -4.2341   57.1802 C.ar    1  ZINC001500042809   -0.1800
      7 C7        -12.4305   -4.7799   56.1504 C.2     1  ZINC001500042809    0.5600
      8 O8        -12.9305   -5.8779   56.3006 O.2     1  ZINC001500042809   -0.5300
      9 N9        -12.7034   -4.0608   55.0436 N.am    1  ZINC001500042809   -0.7300
     10 C10       -13.6038   -4.6017   54.0222 C.3     1  ZINC001500042809    0.1300
     11 C11       -14.0915   -3.4667   53.1196 C.3     1  ZINC001500042809   -0.1200
     12 H12       -14.8677   -3.8411   52.4523 H       1  ZINC001500042809    0.0900
     13 C13       -14.6609   -2.3383   53.9818 C.3     1  ZINC001500042809   -0.1500
     14 C14       -12.9201   -2.9344   52.2916 C.3     1  ZINC001500042809    0.1300
     15 N15       -13.4216   -2.4013   51.0226 N.am    1  ZINC001500042809   -0.7300
     16 C16       -13.6419   -1.0786   50.8874 C.2     1  ZINC001500042809    0.5900
     17 O17       -13.4229   -0.3269   51.8191 O.2     1  ZINC001500042809   -0.5200
     18 C18       -14.1453   -0.5454   49.6182 C.2     1  ZINC001500042809   -0.2800
     19 C19       -14.4962    0.7551   49.3882 C.2     1  ZINC001500042809   -0.0100
     20 C20       -14.4079    1.8348   50.4358 C.3     1  ZINC001500042809   -0.1100
     21 C21       -14.9373    0.9807   48.1058 C.2     1  ZINC001500042809   -0.1500
     22 C22       -14.9481   -0.0963   47.3116 C.2     1  ZINC001500042809   -0.2200
     23 S23       -14.3874   -1.4751   48.1456 S.3     1  ZINC001500042809    0.1900
     24 C24       -11.3804   -2.8519   57.3248 C.ar    1  ZINC001500042809   -0.0400
     25 C25       -10.5380   -2.3467   58.2900 C.ar    1  ZINC001500042809   -0.2200
     26 H26       -10.2475   -1.3260   60.9428 H       1  ZINC001500042809    0.0600
     27 H27       -10.1849   -2.9200   61.7326 H       1  ZINC001500042809    0.0600
     28 H28        -8.8212   -1.7886   61.9019 H       1  ZINC001500042809    0.1000
     29 H29        -9.4048   -5.2530   59.6102 H       1  ZINC001500042809    0.1400
     30 H30       -10.9106   -6.1676   57.8977 H       1  ZINC001500042809    0.1400
     31 H31       -12.3037   -3.1853   54.9233 H       1  ZINC001500042809    0.4000
     32 H32       -14.4588   -5.0747   54.5053 H       1  ZINC001500042809    0.0800
     33 H33       -13.0712   -5.3396   53.4224 H       1  ZINC001500042809    0.0800
     34 H34       -15.4954   -2.7175   54.5717 H       1  ZINC001500042809    0.0600
     35 H35       -13.8847   -1.9639   54.6492 H       1  ZINC001500042809    0.0600
     36 H36       -15.0083   -1.5296   53.3388 H       1  ZINC001500042809    0.0600
     37 H37       -12.4149   -2.1424   52.8442 H       1  ZINC001500042809    0.0800
     38 H38       -12.2178   -3.7441   52.0934 H       1  ZINC001500042809    0.0800
     39 H39       -13.5950   -3.0003   50.2795 H       1  ZINC001500042809    0.4000
     40 H40       -13.4242    2.3025   50.3936 H       1  ZINC001500042809    0.0800
     41 H41       -15.1756    2.5857   50.2494 H       1  ZINC001500042809    0.0700
     42 H42       -14.5598    1.3970   51.4224 H       1  ZINC001500042809    0.0900
     43 H43       -15.2524    1.9556   47.7645 H       1  ZINC001500042809    0.1500
     44 H44       -15.2655   -0.0922   46.2793 H       1  ZINC001500042809    0.1700
     45 H45       -11.9315   -2.1806   56.6829 H       1  ZINC001500042809    0.1300
     46 H46       -10.4284   -1.2785   58.4045 H       1  ZINC001500042809    0.1400
@<TRIPOS>BOND
     1     1     2    1
     2     1    26    1
     3     1    27    1
     4     1    28    1
     5     2     3    1
     6     3    25   ar
     7     3     4   ar
     8     4     5   ar
     9     4    29    1
    10     5     6   ar
    11     5    30    1
    12     6     7    1
    13     6    24   ar
    14     7     8    2
    15     7     9   am
    16     9    10    1
    17     9    31    1
    18    10    11    1
    19    10    32    1
    20    10    33    1
    21    11    12    1
    22    11    13    1
    23    11    14    1
    24    13    34    1
    25    13    35    1
    26    13    36    1
    27    14    15    1
    28    14    37    1
    29    14    38    1
    30    15    16   am
    31    15    39    1
    32    16    17    2
    33    16    18    1
    34    18    23    1
    35    18    19    2
    36    19    20    1
    37    19    21    1
    38    20    40    1
    39    20    41    1
    40    20    42    1
    41    21    22    2
    42    21    43    1
    43    22    23    1
    44    22    44    1
    45    24    25   ar
    46    24    45    1
    47    25    46    1
@<TRIPOS>SUBSTRUCTURE
     1 ZINC001500042809        1 TEMP              0 ****  ****    0 ROOT


##########                                Name:    ZINC001191386213
##########                DOCK_Rotatable_Bonds:                   6
##########                         Heavy_Atoms:                  29
##########                    Molecular_Weight:             392.433
##########                DOCK_Rotatable_Bonds:                   6
##########                       Formal_Charge:               -0.02
##########                     HBond_Acceptors:                   7
##########                        HBond_Donors:                   2
##########                         Heavy_Atoms:                  29
##########                          Grid_Score:          -32.343544
##########                     Grid_vdw_energy:          -33.472099
##########                      Grid_es_energy:            1.128555
##########           Internal_energy_repulsive:           10.226166

@<TRIPOS>MOLECULE
ZINC001191386213
 50 53 1 0 0
SMALL
USER_CHARGES


@<TRIPOS>ATOM
      1 C1         -8.7131    5.1179   50.7457 C.3     1  ZINC001191386213   -0.1700
      2 C2         -8.9803    3.6363   50.8130 C.2     1  ZINC001191386213    0.5100
      3 O3         -9.8687    3.1494   50.1461 O.2     1  ZINC001191386213   -0.5200
      4 N4         -8.2320    2.8522   51.6141 N.am    1  ZINC001191386213   -0.6800
      5 C5         -8.4801    1.4764   51.6765 C.ar    1  ZINC001191386213    0.1400
      6 C6         -7.5018    0.5750   51.2758 C.ar    1  ZINC001191386213   -0.1400
      7 C7         -7.7432   -0.7845   51.3366 C.ar    1  ZINC001191386213   -0.1000
      8 C8         -8.9576   -1.2541   51.7953 C.ar    1  ZINC001191386213   -0.1100
      9 C9         -9.9448   -0.3570   52.1988 C.ar    1  ZINC001191386213    0.0100
     10 C10       -11.2512   -0.8605   52.6923 C.2     1  ZINC001191386213    0.0700
     11 N11       -12.3886   -0.1979   52.6972 N.2     1  ZINC001191386213   -0.2500
     12 N12       -13.3325   -0.9155   53.1902 N.pl3   1  ZINC001191386213   -0.3800
     13 C13       -12.8448   -2.1402   53.5511 C.2     1  ZINC001191386213   -0.0400
     14 C14       -13.6040   -3.2489   54.1519 C.2     1  ZINC001191386213    0.6100
     15 O15       -14.4361   -3.8435   53.4934 O.2     1  ZINC001191386213   -0.5100
     16 N16       -13.3772   -3.6052   55.4318 N.am    1  ZINC001191386213   -0.6200
     17 C17       -14.0606   -4.6885   56.1536 C.3     1  ZINC001191386213    0.0800
     18 C18       -13.4956   -4.7099   57.5896 C.3     1  ZINC001191386213   -0.1200
     19 C19       -12.9335   -3.2742   57.7634 C.3     1  ZINC001191386213   -0.0600
     20 H20       -13.7234   -2.5763   58.0408 H       1  ZINC001191386213    0.1000
     21 C21       -11.8160   -3.2504   58.7741 C.ar    1  ZINC001191386213   -0.1100
     22 C22       -10.6474   -3.9457   58.5289 C.ar    1  ZINC001191386213   -0.0900
     23 C23        -9.6219   -3.9241   59.4561 C.ar    1  ZINC001191386213   -0.1300
     24 C24        -9.7645   -3.2073   60.6293 C.ar    1  ZINC001191386213   -0.0900
     25 C25       -10.9327   -2.5113   60.8769 C.ar    1  ZINC001191386213   -0.1500
     26 C26       -11.9576   -2.5268   59.9463 C.ar    1  ZINC001191386213    0.1100
     27 F27       -13.0999   -1.8470   60.1872 F       1  ZINC001191386213   -0.1400
     28 C28       -12.3982   -2.9775   56.3379 C.3     1  ZINC001191386213    0.1200
     29 C29       -11.4998   -2.1348   53.2342 C.2     1  ZINC001191386213   -0.1300
     30 C30        -9.7005    1.0121   52.1439 C.ar    1  ZINC001191386213   -0.1000
     31 H31        -9.4128    5.5820   50.0506 H       1  ZINC001191386213    0.1000
     32 H32        -8.8406    5.5553   51.7360 H       1  ZINC001191386213    0.0900
     33 H33        -7.6929    5.2879   50.4020 H       1  ZINC001191386213    0.0900
     34 H34        -7.5213    3.2416   52.1474 H       1  ZINC001191386213    0.4100
     35 H35        -6.5504    0.9376   50.9155 H       1  ZINC001191386213    0.1300
     36 H36        -6.9797   -1.4814   51.0240 H       1  ZINC001191386213    0.1300
     37 H37        -9.1429   -2.3171   51.8410 H       1  ZINC001191386213    0.1300
     38 H38       -14.2541   -0.6307   53.2920 H       1  ZINC001191386213    0.4400
     39 H39       -15.1334   -4.4971   56.1802 H       1  ZINC001191386213    0.0700
     40 H40       -13.8641   -5.6421   55.6637 H       1  ZINC001191386213    0.0800
     41 H41       -14.2877   -4.9040   58.3128 H       1  ZINC001191386213    0.0900
     42 H42       -12.6998   -5.4492   57.6798 H       1  ZINC001191386213    0.0900
     43 H43       -10.5351   -4.5068   57.6128 H       1  ZINC001191386213    0.1300
     44 H44        -8.7089   -4.4679   59.2637 H       1  ZINC001191386213    0.1300
     45 H45        -8.9630   -3.1914   61.3530 H       1  ZINC001191386213    0.1300
     46 H46       -11.0442   -1.9519   61.7940 H       1  ZINC001191386213    0.1400
     47 H47       -11.4111   -3.4200   56.2036 H       1  ZINC001191386213    0.0800
     48 H48       -12.3598   -1.9023   56.1632 H       1  ZINC001191386213    0.0900
     49 H49       -10.7896   -2.9355   53.3779 H       1  ZINC001191386213    0.1700
     50 H50       -10.4625    1.7111   52.4555 H       1  ZINC001191386213    0.1500
@<TRIPOS>BOND
     1     1     2    1
     2     1    31    1
     3     1    32    1
     4     1    33    1
     5     2     3    2
     6     2     4   am
     7     4     5    1
     8     4    34    1
     9     5    30   ar
    10     5     6   ar
    11     6     7   ar
    12     6    35    1
    13     7     8   ar
    14     7    36    1
    15     8     9   ar
    16     8    37    1
    17     9    10    1
    18     9    30   ar
    19    10    29    1
    20    10    11    2
    21    11    12    1
    22    12    13    1
    23    12    38    1
    24    13    14    1
    25    13    29    2
    26    14    15    2
    27    14    16   am
    28    16    28    1
    29    16    17    1
    30    17    18    1
    31    17    39    1
    32    17    40    1
    33    18    19    1
    34    18    41    1
    35    18    42    1
    36    19    20    1
    37    19    21    1
    38    19    28    1
    39    21    26   ar
    40    21    22   ar
    41    22    23   ar
    42    22    43    1
    43    23    24   ar
    44    23    44    1
    45    24    25   ar
    46    24    45    1
    47    25    26   ar
    48    25    46    1
    49    26    27    1
    50    28    47    1
    51    28    48    1
    52    29    49    1
    53    30    50    1
@<TRIPOS>SUBSTRUCTURE
     1 ZINC001191386213        1 TEMP              0 ****  ****    0 ROOT


##########                                Name:    ZINC001296589646
##########                DOCK_Rotatable_Bonds:                   8
##########                         Heavy_Atoms:                  29
##########                    Molecular_Weight:             398.548
##########                DOCK_Rotatable_Bonds:                   8
##########                       Formal_Charge:          -0.0200008
##########                     HBond_Acceptors:                   6
##########                        HBond_Donors:                   0
##########                         Heavy_Atoms:                  29
##########                          Grid_Score:          -32.318089
##########                     Grid_vdw_energy:          -31.614008
##########                      Grid_es_energy:           -0.704081
##########           Internal_energy_repulsive:           29.262012

@<TRIPOS>MOLECULE
ZINC001296589646
 63 66 1 0 0
SMALL
USER_CHARGES


@<TRIPOS>ATOM
      1 C1         -1.4961    5.4944   45.2938 C.3     1  ZINC001296589646   -0.1500
      2 C2         -1.8972    4.0206   45.3835 C.3     1  ZINC001296589646    0.0500
      3 O3         -1.2811    3.4280   46.5287 O.3     1  ZINC001296589646   -0.3600
      4 C4         -1.5792    2.0406   46.6965 C.3     1  ZINC001296589646    0.1800
      5 C5         -1.4530    1.3052   45.3871 C.2     1  ZINC001296589646    0.1500
      6 N6         -2.4084    0.6848   44.7548 N.2     1  ZINC001296589646   -0.2600
      7 N7         -1.9546    0.1665   43.6697 N.2     1  ZINC001296589646   -0.3200
      8 C8         -0.6748    0.4307   43.5507 C.2     1  ZINC001296589646    0.3600
      9 N9          0.1544    0.0376   42.5122 N.3     1  ZINC001296589646   -0.4300
     10 C10        -0.6293   -0.5666   41.4046 C.3     1  ZINC001296589646    0.0300
     11 C11         0.3248   -0.4484   40.1896 C.3     1  ZINC001296589646   -0.1200
     12 C12         1.0062    0.9205   40.4169 C.3     1  ZINC001296589646   -0.1000
     13 H13         0.5041    1.6941   39.8360 H       1  ZINC001296589646    0.0800
     14 C14         2.4859    0.8472   40.0349 C.3     1  ZINC001296589646   -0.1400
     15 C15         0.8542    1.2002   41.9236 C.3     1  ZINC001296589646    0.0500
     16 N16        -0.3160    1.1705   44.6397 N.pl3   1  ZINC001296589646   -0.4600
     17 C17         1.0139    1.7017   44.9489 C.3     1  ZINC001296589646    0.1000
     18 C18         1.9737    0.5433   45.2275 C.3     1  ZINC001296589646   -0.1300
     19 C19         3.3743    1.0956   45.4996 C.3     1  ZINC001296589646   -0.0500
     20 H20         3.6899    1.7151   44.6602 H       1  ZINC001296589646    0.0800
     21 C21         3.3508    1.9393   46.7757 C.3     1  ZINC001296589646   -0.1500
     22 C22         4.3406   -0.0480   45.6712 C.ar    1  ZINC001296589646   -0.0800
     23 C23         5.6684    0.1106   45.3208 C.ar    1  ZINC001296589646   -0.1100
     24 C24         6.5548   -0.9385   45.4781 C.ar    1  ZINC001296589646   -0.1200
     25 C25         6.1135   -2.1460   45.9861 C.ar    1  ZINC001296589646   -0.1200
     26 C26         4.7859   -2.3043   46.3372 C.ar    1  ZINC001296589646   -0.1200
     27 C27         3.9004   -1.2538   46.1840 C.ar    1  ZINC001296589646   -0.1200
     28 C28        -2.9936    1.8492   47.3089 C.3     1  ZINC001296589646   -0.1400
     29 C29        -2.6845    2.0093   48.8187 C.3     1  ZINC001296589646    0.0600
     30 O30        -1.3971    1.3997   49.0047 O.3     1  ZINC001296589646   -0.3700
     31 C31        -0.6687    1.4091   47.7714 C.3     1  ZINC001296589646    0.0400
     32 H32        -1.9000    6.0336   46.1507 H       1  ZINC001296589646    0.0600
     33 H33        -0.4091    5.5756   45.2928 H       1  ZINC001296589646    0.0700
     34 H34        -1.8935    5.9237   44.3741 H       1  ZINC001296589646    0.0700
     35 H35        -2.9808    3.9437   45.4733 H       1  ZINC001296589646    0.0500
     36 H36        -1.5694    3.4994   44.4841 H       1  ZINC001296589646    0.0600
     37 H37        -0.8535   -1.6118   41.6176 H       1  ZINC001296589646    0.0900
     38 H38        -1.5460   -0.0032   41.2301 H       1  ZINC001296589646    0.0600
     39 H39         1.0612   -1.2520   40.1979 H       1  ZINC001296589646    0.0800
     40 H40        -0.2378   -0.4490   39.2559 H       1  ZINC001296589646    0.0800
     41 H41         2.5762    0.6001   38.9771 H       1  ZINC001296589646    0.0600
     42 H42         2.9583    1.8109   40.2246 H       1  ZINC001296589646    0.0600
     43 H43         2.9773    0.0780   40.6308 H       1  ZINC001296589646    0.0600
     44 H44         0.2649    2.1044   42.0759 H       1  ZINC001296589646    0.0800
     45 H45         1.8370    1.3128   42.3814 H       1  ZINC001296589646    0.0900
     46 H46         1.3799    2.2810   44.1013 H       1  ZINC001296589646    0.1100
     47 H47         0.9535    2.3430   45.8283 H       1  ZINC001296589646    0.1000
     48 H48         1.6274   -0.0141   46.0980 H       1  ZINC001296589646    0.0800
     49 H49         2.0057   -0.1182   44.3617 H       1  ZINC001296589646    0.0700
     50 H50         4.3486    2.3327   46.9697 H       1  ZINC001296589646    0.0600
     51 H51         2.6519    2.7664   46.6516 H       1  ZINC001296589646    0.0600
     52 H52         3.0351    1.3197   47.6152 H       1  ZINC001296589646    0.0600
     53 H53         6.0132    1.0541   44.9239 H       1  ZINC001296589646    0.1200
     54 H54         7.5920   -0.8147   45.2038 H       1  ZINC001296589646    0.1200
     55 H55         6.8059   -2.9657   46.1083 H       1  ZINC001296589646    0.1200
     56 H56         4.4410   -3.2478   46.7338 H       1  ZINC001296589646    0.1200
     57 H57         2.8632   -1.3776   46.4583 H       1  ZINC001296589646    0.1200
     58 H58        -3.6790    2.6235   46.9640 H       1  ZINC001296589646    0.1000
     59 H59        -3.3849    0.8555   47.0911 H       1  ZINC001296589646    0.1000
     60 H60        -2.6455    3.0650   49.0871 H       1  ZINC001296589646    0.0700
     61 H61        -3.4369    1.4939   49.4156 H       1  ZINC001296589646    0.0900
     62 H62        -0.4121    0.3890   47.4857 H       1  ZINC001296589646    0.1000
     63 H63         0.2388    2.0026   47.8825 H       1  ZINC001296589646    0.0800
@<TRIPOS>BOND
     1     1     2    1
     2     1    32    1
     3     1    33    1
     4     1    34    1
     5     2     3    1
     6     2    35    1
     7     2    36    1
     8     3     4    1
     9     4    31    1
    10     4     5    1
    11     4    28    1
    12     5    16    1
    13     5     6    2
    14     6     7    1
    15     7     8    2
    16     8     9    1
    17     8    16    1
    18     9    15    1
    19     9    10    1
    20    10    11    1
    21    10    37    1
    22    10    38    1
    23    11    12    1
    24    11    39    1
    25    11    40    1
    26    12    13    1
    27    12    14    1
    28    12    15    1
    29    14    41    1
    30    14    42    1
    31    14    43    1
    32    15    44    1
    33    15    45    1
    34    16    17    1
    35    17    18    1
    36    17    46    1
    37    17    47    1
    38    18    19    1
    39    18    48    1
    40    18    49    1
    41    19    20    1
    42    19    21    1
    43    19    22    1
    44    21    50    1
    45    21    51    1
    46    21    52    1
    47    22    27   ar
    48    22    23   ar
    49    23    24   ar
    50    23    53    1
    51    24    25   ar
    52    24    54    1
    53    25    26   ar
    54    25    55    1
    55    26    27   ar
    56    26    56    1
    57    27    57    1
    58    28    29    1
    59    28    58    1
    60    28    59    1
    61    29    30    1
    62    29    60    1
    63    29    61    1
    64    30    31    1
    65    31    62    1
    66    31    63    1
@<TRIPOS>SUBSTRUCTURE
     1 ZINC001296589646        1 TEMP              0 ****  ****    0 ROOT


##########                                Name:    ZINC001356153960
##########                DOCK_Rotatable_Bonds:                   8
##########                         Heavy_Atoms:                  24
##########                    Molecular_Weight:             334.366
##########                DOCK_Rotatable_Bonds:                   8
##########                       Formal_Charge:           0.0100003
##########                     HBond_Acceptors:                   6
##########                        HBond_Donors:                   1
##########                         Heavy_Atoms:                  24
##########                          Grid_Score:          -32.315983
##########                     Grid_vdw_energy:          -31.685308
##########                      Grid_es_energy:           -0.630673
##########           Internal_energy_repulsive:           16.132509

@<TRIPOS>MOLECULE
ZINC001356153960
 44 46 1 0 0
SMALL
USER_CHARGES


@<TRIPOS>ATOM
      1 O1         -9.3836   -1.9868   58.9257 O.2     1  ZINC001356153960   -0.5200
      2 C2         -9.9954   -2.8568   59.5100 C.2     1  ZINC001356153960    0.5100
      3 N3        -10.0499   -2.8538   60.8568 N.am    1  ZINC001356153960   -0.7000
      4 C4         -9.3757   -1.7969   61.6148 C.3     1  ZINC001356153960    0.1300
      5 C5        -10.4216   -0.8846   62.2588 C.3     1  ZINC001356153960   -0.0800
      6 H6        -11.3328   -1.4437   62.4710 H       1  ZINC001356153960    0.0900
      7 C7         -9.8745   -0.2691   63.5257 C.2     1  ZINC001356153960   -0.1700
      8 C8        -10.1509    1.0051   63.5865 C.2     1  ZINC001356153960   -0.1600
      9 C9        -10.9285    1.4518   62.3704 C.3     1  ZINC001356153960   -0.1000
     10 C10       -10.7296    0.3172   61.3359 C.3     1  ZINC001356153960   -0.1200
     11 C11       -10.6832   -3.9350   58.7369 C.2     1  ZINC001356153960    0.5100
     12 O12       -10.1369   -5.0059   58.5714 O.2     1  ZINC001356153960   -0.5100
     13 N13       -11.9103   -3.7179   58.2234 N.am    1  ZINC001356153960   -0.5500
     14 C14       -12.5846   -4.7748   57.4654 C.3     1  ZINC001356153960    0.1300
     15 C15       -12.7541   -4.3363   56.0337 C.ar    1  ZINC001356153960   -0.1600
     16 C16       -11.6525   -3.9482   55.2952 C.ar    1  ZINC001356153960   -0.0300
     17 C17       -11.8058   -3.5511   53.9800 C.ar    1  ZINC001356153960   -0.1700
     18 C18       -13.0649   -3.5310   53.4046 C.ar    1  ZINC001356153960    0.1400
     19 F19       -13.2151   -3.1379   52.1208 F       1  ZINC001356153960   -0.1300
     20 C20       -14.1700   -3.9142   54.1453 C.ar    1  ZINC001356153960   -0.2000
     21 C21       -14.0146   -4.3170   55.4602 C.ar    1  ZINC001356153960    0.1500
     22 F22       -15.0922   -4.6909   56.1843 F       1  ZINC001356153960   -0.1200
     23 C23       -12.5700   -2.4252   58.4232 C.3     1  ZINC001356153960    0.0700
     24 C24       -13.3614   -2.2287   59.7179 C.3     1  ZINC001356153960   -0.1900
     25 C25       -14.0993   -2.3994   58.3876 C.3     1  ZINC001356153960   -0.1800
     26 H26       -10.5354   -3.5514   61.3240 H       1  ZINC001356153960    0.4100
     27 H27        -8.7568   -2.2454   62.3919 H       1  ZINC001356153960    0.0800
     28 H28        -8.7476   -1.2119   60.9427 H       1  ZINC001356153960    0.0800
     29 H29        -9.3264   -0.8120   64.2814 H       1  ZINC001356153960    0.1200
     30 H30        -9.8617    1.6549   64.3992 H       1  ZINC001356153960    0.1300
     31 H31       -11.9854    1.5601   62.6141 H       1  ZINC001356153960    0.0800
     32 H32       -10.5294    2.3915   61.9885 H       1  ZINC001356153960    0.0700
     33 H33        -9.8872    0.5314   60.6780 H       1  ZINC001356153960    0.0800
     34 H34       -11.6395    0.1458   60.7607 H       1  ZINC001356153960    0.0800
     35 H35       -11.9852   -5.6845   57.4983 H       1  ZINC001356153960    0.0900
     36 H36       -13.5634   -4.9686   57.9043 H       1  ZINC001356153960    0.1400
     37 H37       -10.6706   -3.9589   55.7446 H       1  ZINC001356153960    0.1600
     38 H38       -10.9436   -3.2518   53.4026 H       1  ZINC001356153960    0.1400
     39 H39       -15.1526   -3.8986   53.6975 H       1  ZINC001356153960    0.1500
     40 H40       -12.0425   -1.5609   58.0198 H       1  ZINC001356153960    0.1400
     41 H41       -13.3914   -3.0613   60.4208 H       1  ZINC001356153960    0.1400
     42 H42       -13.3550   -1.2350   60.1657 H       1  ZINC001356153960    0.0900
     43 H43       -14.5779   -1.5180   57.9609 H       1  ZINC001356153960    0.1000
     44 H44       -14.6147   -3.3444   58.2153 H       1  ZINC001356153960    0.0900
@<TRIPOS>BOND
     1     1     2    2
     2     2     3   am
     3     2    11    1
     4     3     4    1
     5     3    26    1
     6     4     5    1
     7     4    27    1
     8     4    28    1
     9     5     6    1
    10     5    10    1
    11     5     7    1
    12     7     8    2
    13     7    29    1
    14     8     9    1
    15     8    30    1
    16     9    10    1
    17     9    31    1
    18     9    32    1
    19    10    33    1
    20    10    34    1
    21    11    12    2
    22    11    13   am
    23    13    14    1
    24    13    23    1
    25    14    15    1
    26    14    35    1
    27    14    36    1
    28    15    21   ar
    29    15    16   ar
    30    16    17   ar
    31    16    37    1
    32    17    18   ar
    33    17    38    1
    34    18    19    1
    35    18    20   ar
    36    20    21   ar
    37    20    39    1
    38    21    22    1
    39    23    25    1
    40    23    24    1
    41    23    40    1
    42    24    25    1
    43    24    41    1
    44    24    42    1
    45    25    43    1
    46    25    44    1
@<TRIPOS>SUBSTRUCTURE
     1 ZINC001356153960        1 TEMP              0 ****  ****    0 ROOT


##########                                Name:    ZINC000081577146
##########                DOCK_Rotatable_Bonds:                   4
##########                         Heavy_Atoms:                  25
##########                    Molecular_Weight:             355.464
##########                DOCK_Rotatable_Bonds:                   4
##########                       Formal_Charge:                0.02
##########                     HBond_Acceptors:                   7
##########                        HBond_Donors:                   0
##########                         Heavy_Atoms:                  25
##########                          Grid_Score:          -32.301479
##########                     Grid_vdw_energy:          -32.805523
##########                      Grid_es_energy:            0.504045
##########           Internal_energy_repulsive:           12.301498

@<TRIPOS>MOLECULE
ZINC000081577146
 46 49 1 0 0
SMALL
USER_CHARGES


@<TRIPOS>ATOM
      1 C1         -9.9516    0.0503   63.1007 C.3     1  ZINC000081577146   -0.0700
      2 C2         -9.8689   -0.9537   61.9798 C.2     1  ZINC000081577146    0.2900
      3 N3         -9.2530   -2.0888   62.1393 N.2     1  ZINC000081577146   -0.4800
      4 S4         -9.3957   -2.9042   60.6550 S.3     1  ZINC000081577146    0.1900
      5 C5        -10.2927   -1.6458   59.8928 C.2     1  ZINC000081577146    0.2700
      6 N6        -10.7779   -1.6231   58.5977 N.3     1  ZINC000081577146   -0.4300
      7 C7        -11.8375   -0.6158   58.4499 C.3     1  ZINC000081577146    0.0700
      8 C8        -12.2909   -0.5668   56.9889 C.3     1  ZINC000081577146    0.0500
      9 N9        -12.7707   -1.8951   56.5829 N.3     1  ZINC000081577146   -0.5200
     10 C10       -13.2859   -1.8710   55.2074 C.3     1  ZINC000081577146    0.1900
     11 H11       -13.8120   -0.9325   55.0328 H       1  ZINC000081577146    0.0700
     12 C12       -14.2497   -3.0416   55.0033 C.3     1  ZINC000081577146   -0.1500
     13 C13       -12.1377   -1.9909   54.2387 C.2     1  ZINC000081577146    0.1900
     14 N14       -11.7856   -3.0794   53.6136 N.2     1  ZINC000081577146   -0.4500
     15 C15       -10.7252   -2.8110   52.8372 C.2     1  ZINC000081577146   -0.0200
     16 C16       -10.4212   -1.4978   53.0003 C.2     1  ZINC000081577146    0.0000
     17 C17        -9.3238   -0.7590   52.3407 C.ar    1  ZINC000081577146   -0.0200
     18 C18        -8.4409   -1.4269   51.4908 C.ar    1  ZINC000081577146   -0.1000
     19 C19        -7.4191   -0.7314   50.8780 C.ar    1  ZINC000081577146   -0.1200
     20 C20        -7.2683    0.6251   51.1047 C.ar    1  ZINC000081577146   -0.1100
     21 C21        -8.1398    1.2930   51.9465 C.ar    1  ZINC000081577146   -0.1100
     22 C22        -9.1695    0.6106   52.5607 C.ar    1  ZINC000081577146   -0.0900
     23 O23       -11.3180   -0.9946   53.8769 O.3     1  ZINC000081577146   -0.2000
     24 C24       -11.7110   -2.9026   56.7307 C.3     1  ZINC000081577146    0.0600
     25 C25       -11.2576   -2.9515   58.1917 C.3     1  ZINC000081577146    0.0500
     26 N26       -10.4204   -0.7132   60.8130 N.2     1  ZINC000081577146   -0.5400
     27 H27       -10.8453   -0.1411   63.6946 H       1  ZINC000081577146    0.0900
     28 H28        -9.0688   -0.0384   63.7338 H       1  ZINC000081577146    0.0900
     29 H29       -10.0007    1.0564   62.6844 H       1  ZINC000081577146    0.0900
     30 H30       -12.6830   -0.8816   59.0844 H       1  ZINC000081577146    0.0700
     31 H31       -11.4542    0.3611   58.7446 H       1  ZINC000081577146    0.1100
     32 H32       -13.0969    0.1592   56.8824 H       1  ZINC000081577146    0.1000
     33 H33       -11.4520   -0.2745   56.3574 H       1  ZINC000081577146    0.0600
     34 H34       -13.7236   -3.9801   55.1778 H       1  ZINC000081577146    0.0800
     35 H35       -15.0802   -2.9549   55.7039 H       1  ZINC000081577146    0.0800
     36 H36       -14.6320   -3.0238   53.9827 H       1  ZINC000081577146    0.0700
     37 H37       -10.2076   -3.5116   52.1989 H       1  ZINC000081577146    0.1900
     38 H38        -8.5570   -2.4859   51.3135 H       1  ZINC000081577146    0.1300
     39 H39        -6.7351   -1.2470   50.2200 H       1  ZINC000081577146    0.1300
     40 H40        -6.4666    1.1649   50.6228 H       1  ZINC000081577146    0.1300
     41 H41        -8.0162    2.3519   52.1198 H       1  ZINC000081577146    0.1300
     42 H42        -9.8494    1.1333   53.2172 H       1  ZINC000081577146    0.1300
     43 H43       -12.0943   -3.8794   56.4360 H       1  ZINC000081577146    0.0900
     44 H44       -10.8655   -2.6368   56.0963 H       1  ZINC000081577146    0.0500
     45 H45       -10.4516   -3.6776   58.2982 H       1  ZINC000081577146    0.1000
     46 H46       -12.0965   -3.2438   58.8232 H       1  ZINC000081577146    0.0800
@<TRIPOS>BOND
     1     1     2    1
     2     1    27    1
     3     1    28    1
     4     1    29    1
     5     2    26    1
     6     2     3    2
     7     3     4    1
     8     4     5    1
     9     5     6    1
    10     5    26    2
    11     6    25    1
    12     6     7    1
    13     7     8    1
    14     7    30    1
    15     7    31    1
    16     8     9    1
    17     8    32    1
    18     8    33    1
    19     9    10    1
    20     9    24    1
    21    10    11    1
    22    10    12    1
    23    10    13    1
    24    12    34    1
    25    12    35    1
    26    12    36    1
    27    13    23    1
    28    13    14    2
    29    14    15    1
    30    15    16    2
    31    15    37    1
    32    16    17    1
    33    16    23    1
    34    17    22   ar
    35    17    18   ar
    36    18    19   ar
    37    18    38    1
    38    19    20   ar
    39    19    39    1
    40    20    21   ar
    41    20    40    1
    42    21    22   ar
    43    21    41    1
    44    22    42    1
    45    24    25    1
    46    24    43    1
    47    24    44    1
    48    25    45    1
    49    25    46    1
@<TRIPOS>SUBSTRUCTURE
     1 ZINC000081577146        1 TEMP              0 ****  ****    0 ROOT


##########                                Name:    ZINC000893400114
##########                DOCK_Rotatable_Bonds:                   6
##########                         Heavy_Atoms:                  27
##########                    Molecular_Weight:             381.472
##########                DOCK_Rotatable_Bonds:                   6
##########                       Formal_Charge:           0.0300001
##########                     HBond_Acceptors:                   8
##########                        HBond_Donors:                   1
##########                         Heavy_Atoms:                  27
##########                          Grid_Score:          -32.294449
##########                     Grid_vdw_energy:          -30.171053
##########                      Grid_es_energy:           -2.123394
##########           Internal_energy_repulsive:           79.938454

@<TRIPOS>MOLECULE
ZINC000893400114
 58 61 1 0 0
SMALL
USER_CHARGES


@<TRIPOS>ATOM
      1 O1        -12.6757   -1.4853   58.7575 O.2     1  ZINC000893400114   -0.5600
      2 C2        -11.6351   -1.4885   59.3864 C.2     1  ZINC000893400114    0.7100
      3 N3        -11.4804   -0.6592   60.4374 N.am    1  ZINC000893400114   -0.7300
      4 C4        -12.5638    0.2503   60.8187 C.3     1  ZINC000893400114    0.1400
      5 H5        -13.4973   -0.0490   60.3421 H       1  ZINC000893400114    0.1200
      6 C6        -12.2061    1.7065   60.4410 C.3     1  ZINC000893400114   -0.1400
      7 C7        -11.5841    2.2289   61.7550 C.3     1  ZINC000893400114    0.1000
      8 N8        -12.1691    1.4053   62.8196 N.am    1  ZINC000893400114   -0.6200
      9 C9        -12.1534    1.7589   64.2413 C.3     1  ZINC000893400114    0.1600
     10 C10       -10.8338    1.2997   64.8690 C.3     1  ZINC000893400114   -0.1700
     11 C11       -10.7932    1.7427   66.3340 C.3     1  ZINC000893400114    0.0700
     12 O12       -10.9441    3.1619   66.4054 O.3     1  ZINC000893400114   -0.3800
     13 C13       -12.1806    3.6447   65.8761 C.3     1  ZINC000893400114    0.0700
     14 C14       -12.2769    3.2781   64.3928 C.3     1  ZINC000893400114   -0.1700
     15 C15       -12.7237    0.2824   62.3226 C.2     1  ZINC000893400114    0.5100
     16 O16       -13.2693   -0.5748   62.9848 O.2     1  ZINC000893400114   -0.4900
     17 N17       -10.6383   -2.3252   59.0357 N.am    1  ZINC000893400114   -0.6300
     18 C18        -9.3722   -2.3511   59.7852 C.3     1  ZINC000893400114    0.0800
     19 C19        -9.0567   -3.8060   60.1511 C.3     1  ZINC000893400114    0.0500
     20 O20        -9.1126   -4.6108   58.9710 O.3     1  ZINC000893400114   -0.3800
     21 C21       -10.4000   -4.6515   58.3505 C.3     1  ZINC000893400114    0.0600
     22 C22       -10.7863   -3.2439   57.8959 C.3     1  ZINC000893400114    0.1400
     23 H23       -10.1283   -2.9258   57.0872 H       1  ZINC000893400114    0.0800
     24 C24       -12.2376   -3.2392   57.4114 C.3     1  ZINC000893400114   -0.1200
     25 C25       -12.4321   -4.3451   56.3722 C.3     1  ZINC000893400114    0.0700
     26 H26       -11.4704   -4.6163   55.9366 H       1  ZINC000893400114    0.0800
     27 C27       -13.3908   -3.8596   55.2638 C.3     1  ZINC000893400114   -0.1500
     28 C28       -14.2368   -5.1306   54.9797 C.3     1  ZINC000893400114   -0.1600
     29 C29       -14.3092   -5.7580   56.3947 C.3     1  ZINC000893400114    0.0500
     30 O30       -13.0268   -5.4927   56.9895 O.3     1  ZINC000893400114   -0.3800
     31 H31       -10.6517   -0.6645   60.9416 H       1  ZINC000893400114    0.4000
     32 H32       -11.4798    1.7316   59.6287 H       1  ZINC000893400114    0.1000
     33 H33       -13.1002    2.2728   60.1805 H       1  ZINC000893400114    0.1000
     34 H34       -10.5013    2.1057   61.7349 H       1  ZINC000893400114    0.0700
     35 H35       -11.8425    3.2773   61.9040 H       1  ZINC000893400114    0.0800
     36 H36       -12.9879    1.2730   64.7470 H       1  ZINC000893400114    0.0900
     37 H37       -10.7634    0.2133   64.8149 H       1  ZINC000893400114    0.0800
     38 H38        -9.9989    1.7472   64.3299 H       1  ZINC000893400114    0.0900
     39 H39       -11.6045    1.2629   66.8813 H       1  ZINC000893400114    0.0500
     40 H40        -9.8381    1.4560   66.7740 H       1  ZINC000893400114    0.1000
     41 H41       -13.0100    3.1898   66.4175 H       1  ZINC000893400114    0.0500
     42 H42       -12.2249    4.7281   65.9864 H       1  ZINC000893400114    0.1000
     43 H43       -11.4710    3.7656   63.8441 H       1  ZINC000893400114    0.0900
     44 H44       -13.2383    3.6067   63.9981 H       1  ZINC000893400114    0.0700
     45 H45        -8.5712   -1.9461   59.1667 H       1  ZINC000893400114    0.0800
     46 H46        -9.4712   -1.7572   60.6937 H       1  ZINC000893400114    0.0800
     47 H47        -8.0583   -3.8640   60.5845 H       1  ZINC000893400114    0.1100
     48 H48        -9.7894   -4.1668   60.8729 H       1  ZINC000893400114    0.0500
     49 H49       -10.3679   -5.3179   57.4886 H       1  ZINC000893400114    0.1300
     50 H50       -11.1375   -5.0155   59.0658 H       1  ZINC000893400114    0.0500
     51 H51       -12.9034   -3.4136   58.2566 H       1  ZINC000893400114    0.0800
     52 H52       -12.4672   -2.2732   56.9614 H       1  ZINC000893400114    0.1100
     53 H53       -14.0210   -3.0468   55.6247 H       1  ZINC000893400114    0.0800
     54 H54       -12.8356   -3.5567   54.3760 H       1  ZINC000893400114    0.0800
     55 H55       -15.2298   -4.8682   54.6151 H       1  ZINC000893400114    0.0800
     56 H56       -13.7265   -5.7942   54.2815 H       1  ZINC000893400114    0.0800
     57 H57       -15.1017   -5.2878   56.9769 H       1  ZINC000893400114    0.0600
     58 H58       -14.4775   -6.8326   56.3239 H       1  ZINC000893400114    0.0800
@<TRIPOS>BOND
     1     1     2    2
     2     2     3   am
     3     2    17   am
     4     3     4    1
     5     3    31    1
     6     4     5    1
     7     4    15    1
     8     4     6    1
     9     6     7    1
    10     6    32    1
    11     6    33    1
    12     7     8    1
    13     7    34    1
    14     7    35    1
    15     8     9    1
    16     8    15   am
    17     9    14    1
    18     9    10    1
    19     9    36    1
    20    10    11    1
    21    10    37    1
    22    10    38    1
    23    11    12    1
    24    11    39    1
    25    11    40    1
    26    12    13    1
    27    13    14    1
    28    13    41    1
    29    13    42    1
    30    14    43    1
    31    14    44    1
    32    15    16    2
    33    17    22    1
    34    17    18    1
    35    18    19    1
    36    18    45    1
    37    18    46    1
    38    19    20    1
    39    19    47    1
    40    19    48    1
    41    20    21    1
    42    21    22    1
    43    21    49    1
    44    21    50    1
    45    22    23    1
    46    22    24    1
    47    24    25    1
    48    24    51    1
    49    24    52    1
    50    25    26    1
    51    25    30    1
    52    25    27    1
    53    27    28    1
    54    27    53    1
    55    27    54    1
    56    28    29    1
    57    28    55    1
    58    28    56    1
    59    29    30    1
    60    29    57    1
    61    29    58    1
@<TRIPOS>SUBSTRUCTURE
     1 ZINC000893400114        1 TEMP              0 ****  ****    0 ROOT


##########                                Name:    ZINC001023148918
##########                DOCK_Rotatable_Bonds:                   6
##########                         Heavy_Atoms:                  25
##########                    Molecular_Weight:             348.402
##########                DOCK_Rotatable_Bonds:                   6
##########                       Formal_Charge:           0.0199999
##########                     HBond_Acceptors:                   8
##########                        HBond_Donors:                   2
##########                         Heavy_Atoms:                  25
##########                          Grid_Score:          -32.292065
##########                     Grid_vdw_energy:          -31.754168
##########                      Grid_es_energy:           -0.537897
##########           Internal_energy_repulsive:           20.844820

@<TRIPOS>MOLECULE
ZINC001023148918
 49 52 1 0 0
SMALL
USER_CHARGES


@<TRIPOS>ATOM
      1 C1        -12.3809   -1.1339   53.3117 C.3     1  ZINC001023148918   -0.0700
      2 C2        -11.0137   -0.7579   52.8011 C.2     1  ZINC001023148918    0.0200
      3 N3        -10.0828   -1.5892   52.4079 N.2     1  ZINC001023148918   -0.2700
      4 N4         -9.0315   -0.9554   52.0298 N.pl3   1  ZINC001023148918   -0.2500
      5 C5         -7.8034   -1.5790   51.5309 C.3     1  ZINC001023148918    0.0800
      6 C6         -9.2336    0.3889   52.1638 C.2     1  ZINC001023148918   -0.0400
      7 C7         -8.2797    1.4620   51.8408 C.2     1  ZINC001023148918    0.6000
      8 O8         -8.6022    2.6260   51.9845 O.2     1  ZINC001023148918   -0.5300
      9 N9         -7.0487    1.1550   51.3859 N.am    1  ZINC001023148918   -0.7000
     10 C10        -6.0992    2.2233   51.0644 C.3     1  ZINC001023148918    0.1500
     11 H11        -6.6167    3.0971   50.6684 H       1  ZINC001023148918    0.1200
     12 C12        -5.0157    1.7244   50.0759 C.3     1  ZINC001023148918    0.1000
     13 N13        -3.8569    2.6050   50.3103 N.am    1  ZINC001023148918   -0.6200
     14 C14        -2.8775    2.8674   49.4223 C.2     1  ZINC001023148918    0.5400
     15 O15        -1.9689    3.6120   49.7239 O.2     1  ZINC001023148918   -0.5200
     16 C16        -2.9115    2.2355   48.0546 C.3     1  ZINC001023148918   -0.1400
     17 H17        -3.9395    2.0615   47.7366 H       1  ZINC001023148918    0.1100
     18 C18        -2.1011    0.9143   48.0398 C.3     1  ZINC001023148918   -0.1400
     19 C19        -0.9802    1.2089   46.9982 C.3     1  ZINC001023148918    0.0600
     20 H20        -0.0881    0.5884   47.0836 H       1  ZINC001023148918    0.1300
     21 C21        -1.6879    1.1742   45.6105 C.3     1  ZINC001023148918   -0.1500
     22 C22        -2.5094    2.4886   45.6113 C.3     1  ZINC001023148918   -0.1500
     23 C23        -2.1555    3.1206   47.0187 C.3     1  ZINC001023148918    0.0900
     24 H24        -2.3102    4.1965   47.0999 H       1  ZINC001023148918    0.1400
     25 O25        -0.7754    2.6462   47.1977 O.3     1  ZINC001023148918   -0.3600
     26 C26        -3.9469    3.1502   51.6727 C.3     1  ZINC001023148918    0.0700
     27 C27        -5.2432    2.5979   52.3031 C.3     1  ZINC001023148918    0.0900
     28 H28        -5.0328    1.7151   52.9068 H       1  ZINC001023148918    0.0800
     29 O29        -5.8916    3.6014   53.0870 O.3     1  ZINC001023148918   -0.5500
     30 C30       -10.5175    0.5398   52.6579 C.2     1  ZINC001023148918   -0.1800
     31 H31       -13.0782   -1.1897   52.4759 H       1  ZINC001023148918    0.0800
     32 H32       -12.3297   -2.1032   53.8076 H       1  ZINC001023148918    0.0700
     33 H33       -12.7236   -0.3805   54.0210 H       1  ZINC001023148918    0.0800
     34 H34        -7.8957   -1.7572   50.4594 H       1  ZINC001023148918    0.0900
     35 H35        -6.9580   -0.9168   51.7174 H       1  ZINC001023148918    0.1100
     36 H36        -7.6427   -2.5269   52.0443 H       1  ZINC001023148918    0.0900
     37 H37        -6.7916    0.2269   51.2713 H       1  ZINC001023148918    0.4100
     38 H38        -4.7545    0.6883   50.2907 H       1  ZINC001023148918    0.0800
     39 H39        -5.3655    1.8230   49.0482 H       1  ZINC001023148918    0.0900
     40 H40        -1.6727    0.7131   49.0216 H       1  ZINC001023148918    0.0800
     41 H41        -2.7244    0.0826   47.7114 H       1  ZINC001023148918    0.0900
     42 H42        -0.9553    1.1772   44.8033 H       1  ZINC001023148918    0.0800
     43 H43        -2.3451    0.3080   45.5337 H       1  ZINC001023148918    0.0800
     44 H44        -2.1864    3.1465   44.8046 H       1  ZINC001023148918    0.0800
     45 H45        -3.5760    2.2772   45.5351 H       1  ZINC001023148918    0.0800
     46 H46        -3.0844    2.8305   52.2576 H       1  ZINC001023148918    0.0800
     47 H47        -3.9886    4.2387   51.6344 H       1  ZINC001023148918    0.0900
     48 H48        -6.7542    3.3340   53.4328 H       1  ZINC001023148918    0.3900
     49 H49       -11.0255    1.4643   52.8897 H       1  ZINC001023148918    0.1600
@<TRIPOS>BOND
     1     1     2    1
     2     1    31    1
     3     1    32    1
     4     1    33    1
     5     2    30    1
     6     2     3    2
     7     3     4    1
     8     4     5    1
     9     4     6    1
    10     5    34    1
    11     5    35    1
    12     5    36    1
    13     6     7    1
    14     6    30    2
    15     7     8    2
    16     7     9   am
    17     9    10    1
    18     9    37    1
    19    10    11    1
    20    10    27    1
    21    10    12    1
    22    12    13    1
    23    12    38    1
    24    12    39    1
    25    13    14   am
    26    13    26    1
    27    14    15    2
    28    14    16    1
    29    16    17    1
    30    16    23    1
    31    16    18    1
    32    18    19    1
    33    18    40    1
    34    18    41    1
    35    19    20    1
    36    19    25    1
    37    19    21    1
    38    21    22    1
    39    21    42    1
    40    21    43    1
    41    22    23    1
    42    22    44    1
    43    22    45    1
    44    23    24    1
    45    23    25    1
    46    26    27    1
    47    26    46    1
    48    26    47    1
    49    27    28    1
    50    27    29    1
    51    29    48    1
    52    30    49    1
@<TRIPOS>SUBSTRUCTURE
     1 ZINC001023148918        1 TEMP              0 ****  ****    0 ROOT


##########                                Name:    ZINC000588570917
##########                DOCK_Rotatable_Bonds:                   7
##########                         Heavy_Atoms:                  25
##########                    Molecular_Weight:             366.481
##########                DOCK_Rotatable_Bonds:                   7
##########                       Formal_Charge:          -0.0100006
##########                     HBond_Acceptors:                   7
##########                        HBond_Donors:                   1
##########                         Heavy_Atoms:                  25
##########                          Grid_Score:          -32.253189
##########                     Grid_vdw_energy:          -30.701796
##########                      Grid_es_energy:           -1.551392
##########           Internal_energy_repulsive:           17.988243

@<TRIPOS>MOLECULE
ZINC000588570917
 51 52 1 0 0
SMALL
USER_CHARGES


@<TRIPOS>ATOM
      1 C1         -8.6692    3.4854   55.7214 C.3     1  ZINC000588570917   -0.1300
      2 C2         -7.6000    3.4310   54.6609 C.2     1  ZINC000588570917   -0.0500
      3 C3         -7.8889    2.9670   53.4482 C.2     1  ZINC000588570917   -0.2000
      4 C4         -9.2852    2.4940   53.1353 C.3     1  ZINC000588570917   -0.0900
      5 C5         -9.2190    1.1294   52.4467 C.3     1  ZINC000588570917   -0.1500
      6 C6         -6.8458    2.9154   52.4128 C.2     1  ZINC000588570917    0.5600
      7 O7         -7.1301    3.1388   51.2515 O.2     1  ZINC000588570917   -0.5100
      8 N8         -5.5749    2.6207   52.7507 N.am    1  ZINC000588570917   -0.6800
      9 C9         -4.5830    2.5716   51.7663 C.ar    1  ZINC000588570917    0.2100
     10 C10        -3.6579    3.6019   51.6585 C.ar    1  ZINC000588570917   -0.1700
     11 C11        -2.6791    3.5500   50.6854 C.ar    1  ZINC000588570917    0.0000
     12 C12        -2.6196    2.4739   49.8191 C.ar    1  ZINC000588570917   -0.7000
     13 S13        -1.3693    2.4117   48.5791 S.o2    1  ZINC000588570917    2.6900
     14 O14        -0.4894    3.4961   48.8418 O.2     1  ZINC000588570917   -0.9500
     15 O15        -0.9380    1.0595   48.5117 O.2     1  ZINC000588570917   -0.9500
     16 N16        -2.0993    2.7424   47.1298 N.am    1  ZINC000588570917   -1.0000
     17 C17        -1.6781    3.8928   46.3147 C.3     1  ZINC000588570917    0.0900
     18 C18        -1.4222    3.4040   44.8844 C.3     1  ZINC000588570917    0.0700
     19 H19        -0.5506    2.7496   44.8738 H       1  ZINC000588570917    0.0700
     20 C20        -1.1702    4.6054   43.9712 C.3     1  ZINC000588570917   -0.1500
     21 O21        -2.5665    2.6829   44.4216 O.3     1  ZINC000588570917   -0.3700
     22 C22        -2.8583    1.5028   45.1740 C.3     1  ZINC000588570917    0.0800
     23 H23        -3.7130    0.9911   44.7315 H       1  ZINC000588570917    0.1200
     24 C24        -1.6428    0.5739   45.1594 C.3     1  ZINC000588570917   -0.1900
     25 C25        -3.1840    1.8910   46.6164 C.3     1  ZINC000588570917    0.0900
     26 C26        -3.5389    1.4462   49.9241 C.ar    1  ZINC000588570917    0.0000
     27 C27        -4.5171    1.4896   50.8980 C.ar    1  ZINC000588570917   -0.1400
     28 H28        -8.2482    3.8909   56.6413 H       1  ZINC000588570917    0.0600
     29 H29        -9.4848    4.1242   55.3826 H       1  ZINC000588570917    0.0800
     30 H30        -9.0481    2.4804   55.9074 H       1  ZINC000588570917    0.0800
     31 H31        -6.5990    3.7685   54.8855 H       1  ZINC000588570917    0.1300
     32 H32        -9.8552    2.4071   54.0602 H       1  ZINC000588570917    0.0700
     33 H33        -9.7720    3.2112   52.4744 H       1  ZINC000588570917    0.0800
     34 H34        -8.7321    0.4122   53.1077 H       1  ZINC000588570917    0.0500
     35 H35       -10.2288    0.7872   52.2204 H       1  ZINC000588570917    0.0600
     36 H36        -8.6489    1.2162   51.5218 H       1  ZINC000588570917    0.0600
     37 H37        -5.3482    2.4426   53.6769 H       1  ZINC000588570917    0.4100
     38 H38        -3.7040    4.4429   52.3346 H       1  ZINC000588570917    0.1400
     39 H39        -1.9596    4.3511   50.6009 H       1  ZINC000588570917    0.1400
     40 H40        -2.4651    4.6469   46.3096 H       1  ZINC000588570917    0.0900
     41 H41        -0.7632    4.3190   46.7262 H       1  ZINC000588570917    0.1000
     42 H42        -0.2999    5.1565   44.3276 H       1  ZINC000588570917    0.0700
     43 H43        -0.9883    4.2572   42.9545 H       1  ZINC000588570917    0.0700
     44 H44        -2.0428    5.2586   43.9809 H       1  ZINC000588570917    0.0700
     45 H45        -0.7890    1.0857   45.6037 H       1  ZINC000588570917    0.0600
     46 H46        -1.8660   -0.3255   45.7333 H       1  ZINC000588570917    0.0700
     47 H47        -1.4072    0.2997   44.1312 H       1  ZINC000588570917    0.0700
     48 H48        -3.2686    0.9927   47.2280 H       1  ZINC000588570917    0.1000
     49 H49        -4.1226    2.4446   46.6446 H       1  ZINC000588570917    0.0900
     50 H50        -3.4897    0.6071   49.2459 H       1  ZINC000588570917    0.1400
     51 H51        -5.2346    0.6864   50.9797 H       1  ZINC000588570917    0.1500
@<TRIPOS>BOND
     1     1     2    1
     2     1    28    1
     3     1    29    1
     4     1    30    1
     5     2     3    2
     6     2    31    1
     7     3     4    1
     8     3     6    1
     9     4     5    1
    10     4    32    1
    11     4    33    1
    12     5    34    1
    13     5    35    1
    14     5    36    1
    15     6     7    2
    16     6     8   am
    17     8     9    1
    18     8    37    1
    19     9    27   ar
    20     9    10   ar
    21    10    11   ar
    22    10    38    1
    23    11    12   ar
    24    11    39    1
    25    12    13    1
    26    12    26   ar
    27    13    14    2
    28    13    15    2
    29    13    16   am
    30    16    25    1
    31    16    17    1
    32    17    18    1
    33    17    40    1
    34    17    41    1
    35    18    19    1
    36    18    20    1
    37    18    21    1
    38    20    42    1
    39    20    43    1
    40    20    44    1
    41    21    22    1
    42    22    23    1
    43    22    24    1
    44    22    25    1
    45    24    45    1
    46    24    46    1
    47    24    47    1
    48    25    48    1
    49    25    49    1
    50    26    27   ar
    51    26    50    1
    52    27    51    1
@<TRIPOS>SUBSTRUCTURE
     1 ZINC000588570917        1 TEMP              0 ****  ****    0 ROOT


##########                                Name:    ZINC000797321835
##########                DOCK_Rotatable_Bonds:                   4
##########                         Heavy_Atoms:                  22
##########                    Molecular_Weight:             381.253
##########                DOCK_Rotatable_Bonds:                   4
##########                       Formal_Charge:           0.0200001
##########                     HBond_Acceptors:                   7
##########                        HBond_Donors:                   1
##########                         Heavy_Atoms:                  22
##########                          Grid_Score:          -32.247276
##########                     Grid_vdw_energy:          -29.992783
##########                      Grid_es_energy:           -2.254496
##########           Internal_energy_repulsive:           11.086052

@<TRIPOS>MOLECULE
ZINC000797321835
 35 37 1 0 0
SMALL
USER_CHARGES


@<TRIPOS>ATOM
      1 C1        -10.5335    2.2087   66.3312 C.3     1  ZINC000797321835    0.1000
      2 N2         -9.3373    1.6143   66.9327 N.am    1  ZINC000797321835   -0.6000
      3 C3         -9.1008    1.5587   68.2548 C.2     1  ZINC000797321835    0.5200
      4 O4         -9.8394    1.9962   69.1115 O.2     1  ZINC000797321835   -0.5200
      5 C5         -7.7798    0.8704   68.5186 C.3     1  ZINC000797321835   -0.1500
      6 C6         -7.4546    0.1514   67.1887 C.3     1  ZINC000797321835   -0.1200
      7 C7         -8.2458    0.9976   66.1696 C.3     1  ZINC000797321835    0.1200
      8 H8         -7.6066    1.7715   65.7447 H       1  ZINC000797321835    0.1100
      9 C9         -8.7954    0.1179   65.0763 C.2     1  ZINC000797321835    0.4900
     10 O10        -9.0802   -1.0370   65.3128 O.2     1  ZINC000797321835   -0.4400
     11 N11        -8.9703    0.6147   63.8357 N.am    1  ZINC000797321835   -0.6500
     12 C12        -9.4789   -0.1995   62.8238 C.ar    1  ZINC000797321835    0.3000
     13 C13       -10.3756    0.3238   61.8916 C.ar    1  ZINC000797321835   -0.1400
     14 C14       -10.8540   -0.5195   60.9053 C.ar    1  ZINC000797321835   -0.0800
     15 C15       -10.4078   -1.8477   60.9041 C.ar    1  ZINC000797321835    0.1100
     16 C16       -10.8872   -2.7897   59.8727 C.2     1  ZINC000797321835   -0.1400
     17 C17       -10.1304   -3.7201   59.2559 C.2     1  ZINC000797321835   -0.0900
     18 C18       -10.8018   -4.4854   58.3259 C.2     1  ZINC000797321835   -0.0900
     19 C19       -12.0978   -4.1889   58.1779 C.2     1  ZINC000797321835   -0.2000
     20 Br20      -13.2829   -5.0554   56.9860 Br      1  ZINC000797321835    0.0200
     21 S21       -12.5351   -2.8768   59.2642 S.3     1  ZINC000797321835    0.1900
     22 N22        -9.5515   -2.2561   61.8342 N.ar    1  ZINC000797321835   -0.1900
     23 N23        -9.1067   -1.4679   62.7443 N.ar    1  ZINC000797321835   -0.2200
     24 H24       -11.3076    1.4475   66.2336 H       1  ZINC000797321835    0.0700
     25 H25       -10.8965    3.0166   66.9666 H       1  ZINC000797321835    0.0800
     26 H26       -10.2866    2.6042   65.3460 H       1  ZINC000797321835    0.0700
     27 H27        -7.0083    1.6032   68.7547 H       1  ZINC000797321835    0.1100
     28 H28        -7.8811    0.1475   69.3281 H       1  ZINC000797321835    0.1100
     29 H29        -6.3853    0.1832   66.9795 H       1  ZINC000797321835    0.1100
     30 H30        -7.8176   -0.8762   67.2020 H       1  ZINC000797321835    0.0900
     31 H31        -8.7426    1.5384   63.6465 H       1  ZINC000797321835    0.4200
     32 H32       -10.6871    1.3568   61.9389 H       1  ZINC000797321835    0.1600
     33 H33       -11.5501   -0.1653   60.1594 H       1  ZINC000797321835    0.1500
     34 H34        -9.0811   -3.8548   59.4731 H       1  ZINC000797321835    0.1600
     35 H35       -10.3171   -5.2662   57.7587 H       1  ZINC000797321835    0.1600
@<TRIPOS>BOND
     1     1     2    1
     2     1    24    1
     3     1    25    1
     4     1    26    1
     5     2     7    1
     6     2     3   am
     7     3     4    2
     8     3     5    1
     9     5     6    1
    10     5    27    1
    11     5    28    1
    12     6     7    1
    13     6    29    1
    14     6    30    1
    15     7     8    1
    16     7     9    1
    17     9    10    2
    18     9    11   am
    19    11    12    1
    20    11    31    1
    21    12    23   ar
    22    12    13   ar
    23    13    14   ar
    24    13    32    1
    25    14    15   ar
    26    14    33    1
    27    15    16    1
    28    15    22   ar
    29    16    21    1
    30    16    17    2
    31    17    18    1
    32    17    34    1
    33    18    19    2
    34    18    35    1
    35    19    20    1
    36    19    21    1
    37    22    23   ar
@<TRIPOS>SUBSTRUCTURE
     1 ZINC000797321835        1 TEMP              0 ****  ****    0 ROOT


##########                                Name:    ZINC001122903793
##########                DOCK_Rotatable_Bonds:                   4
##########                         Heavy_Atoms:                  25
##########                    Molecular_Weight:             399.968
##########                DOCK_Rotatable_Bonds:                   4
##########                       Formal_Charge:           0.0100003
##########                     HBond_Acceptors:                   9
##########                        HBond_Donors:                   0
##########                         Heavy_Atoms:                  25
##########                          Grid_Score:          -32.244366
##########                     Grid_vdw_energy:          -32.060917
##########                      Grid_es_energy:           -0.183450
##########           Internal_energy_repulsive:           13.285133

@<TRIPOS>MOLECULE
ZINC001122903793
 47 50 1 0 0
SMALL
USER_CHARGES


@<TRIPOS>ATOM
      1 C1        -10.9349    0.0608   62.1431 C.3     1  ZINC001122903793   -0.1400
      2 C2        -10.8516   -1.2263   61.3201 C.3     1  ZINC001122903793   -0.0400
      3 H3        -11.7398   -1.8327   61.4979 H       1  ZINC001122903793    0.1000
      4 S4         -9.3670   -2.1623   61.7979 S.3     1  ZINC001122903793   -0.2500
      5 C5         -9.3237   -3.4690   60.5333 C.3     1  ZINC001122903793   -0.0800
      6 C6         -9.4321   -2.8134   59.1525 C.3     1  ZINC001122903793    0.0700
      7 N7        -10.7106   -2.1085   59.0352 N.3     1  ZINC001122903793   -0.4800
      8 C8        -11.0158   -1.8511   57.7087 C.2     1  ZINC001122903793    0.3700
      9 N9        -10.4295   -0.9700   56.9323 N.2     1  ZINC001122903793   -0.2900
     10 N10       -10.9577   -0.9909   55.7610 N.2     1  ZINC001122903793   -0.2400
     11 C11       -11.9167   -1.8894   55.7177 C.2     1  ZINC001122903793    0.2600
     12 C12       -12.7599   -2.2149   54.5558 C.2     1  ZINC001122903793   -0.1600
     13 C13       -12.4565   -3.0928   53.5704 C.2     1  ZINC001122903793    0.1600
     14 Cl14      -10.9734   -3.9944   53.5333 Cl      1  ZINC001122903793    0.0300
     15 N15       -13.3827   -3.2028   52.6444 N.2     1  ZINC001122903793   -0.4600
     16 C16       -14.4447   -2.4800   52.7797 C.2     1  ZINC001122903793    0.0300
     17 S17       -14.3478   -1.5378   54.2027 S.3     1  ZINC001122903793    0.2200
     18 N18       -11.9792   -2.4714   56.9640 N.pl3   1  ZINC001122903793   -0.4600
     19 C19       -12.8930   -3.5294   57.4023 C.3     1  ZINC001122903793    0.1100
     20 C20       -14.0957   -2.9033   58.1108 C.3     1  ZINC001122903793    0.0700
     21 H21       -14.1771   -1.8469   57.8549 H       1  ZINC001122903793    0.0800
     22 C22       -15.3965   -3.6518   57.7253 C.3     1  ZINC001122903793   -0.1500
     23 C23       -16.2926   -3.3378   58.9543 C.3     1  ZINC001122903793   -0.1500
     24 C24       -15.2669   -3.3050   60.1078 C.3     1  ZINC001122903793    0.0500
     25 O25       -13.9757   -3.0639   59.5333 O.3     1  ZINC001122903793   -0.3700
     26 C26       -10.7546   -0.8795   59.8305 C.3     1  ZINC001122903793    0.1000
     27 H27        -9.8466   -0.3023   59.6559 H       1  ZINC001122903793    0.0800
     28 C28       -11.9717   -0.0497   59.4169 C.3     1  ZINC001122903793   -0.1500
     29 H29       -11.8216    0.6229   61.8499 H       1  ZINC001122903793    0.0800
     30 H30       -10.9968   -0.1887   63.2025 H       1  ZINC001122903793    0.0700
     31 H31       -10.0457    0.6651   61.9635 H       1  ZINC001122903793    0.0700
     32 H32        -8.3846   -4.0177   60.6056 H       1  ZINC001122903793    0.1200
     33 H33       -10.1615   -4.1503   60.6820 H       1  ZINC001122903793    0.0900
     34 H34        -8.6144   -2.1043   59.0230 H       1  ZINC001122903793    0.0700
     35 H35        -9.3697   -3.5810   58.3812 H       1  ZINC001122903793    0.0900
     36 H36       -15.2781   -2.4751   52.0930 H       1  ZINC001122903793    0.2100
     37 H37       -13.2356   -4.0953   56.5361 H       1  ZINC001122903793    0.1200
     38 H38       -12.3730   -4.1967   58.0897 H       1  ZINC001122903793    0.1000
     39 H39       -15.8275   -3.2448   56.8107 H       1  ZINC001122903793    0.0900
     40 H40       -15.2200   -4.7233   57.6314 H       1  ZINC001122903793    0.0800
     41 H41       -16.7805   -2.3698   58.8414 H       1  ZINC001122903793    0.0800
     42 H42       -17.0272   -4.1278   59.1108 H       1  ZINC001122903793    0.0900
     43 H43       -15.5168   -2.5026   60.8020 H       1  ZINC001122903793    0.0700
     44 H44       -15.2675   -4.2614   60.6305 H       1  ZINC001122903793    0.0700
     45 H45       -12.8803   -0.6269   59.5885 H       1  ZINC001122903793    0.0600
     46 H46       -12.0056    0.8653   60.0083 H       1  ZINC001122903793    0.0800
     47 H47       -11.8964    0.2036   58.3595 H       1  ZINC001122903793    0.0600
@<TRIPOS>BOND
     1     1     2    1
     2     1    29    1
     3     1    30    1
     4     1    31    1
     5     2     3    1
     6     2    26    1
     7     2     4    1
     8     4     5    1
     9     5     6    1
    10     5    32    1
    11     5    33    1
    12     6     7    1
    13     6    34    1
    14     6    35    1
    15     7     8    1
    16     7    26    1
    17     8    18    1
    18     8     9    2
    19     9    10    1
    20    10    11    2
    21    11    12    1
    22    11    18    1
    23    12    17    1
    24    12    13    2
    25    13    14    1
    26    13    15    1
    27    15    16    2
    28    16    17    1
    29    16    36    1
    30    18    19    1
    31    19    20    1
    32    19    37    1
    33    19    38    1
    34    20    21    1
    35    20    25    1
    36    20    22    1
    37    22    23    1
    38    22    39    1
    39    22    40    1
    40    23    24    1
    41    23    41    1
    42    23    42    1
    43    24    25    1
    44    24    43    1
    45    24    44    1
    46    26    27    1
    47    26    28    1
    48    28    45    1
    49    28    46    1
    50    28    47    1
@<TRIPOS>SUBSTRUCTURE
     1 ZINC001122903793        1 TEMP              0 ****  ****    0 ROOT


##########                                Name:    ZINC000281257088
##########                DOCK_Rotatable_Bonds:                   8
##########                         Heavy_Atoms:                  27
##########                    Molecular_Weight:             395.541
##########                DOCK_Rotatable_Bonds:                   8
##########                       Formal_Charge:          -0.0200005
##########                     HBond_Acceptors:                   7
##########                        HBond_Donors:                   1
##########                         Heavy_Atoms:                  27
##########                          Grid_Score:          -32.219494
##########                     Grid_vdw_energy:          -30.076796
##########                      Grid_es_energy:           -2.142698
##########           Internal_energy_repulsive:           28.691822

@<TRIPOS>MOLECULE
ZINC000281257088
 57 58 1 0 0
SMALL
USER_CHARGES


@<TRIPOS>ATOM
      1 C1        -15.0347   -0.5409   63.2733 C.3     1  ZINC000281257088   -0.0700
      2 C2        -13.5454   -0.4861   63.0502 C.2     1  ZINC000281257088    0.1000
      3 N3        -12.6918    0.2249   63.7414 N.2     1  ZINC000281257088   -0.3000
      4 N4        -11.4111   -0.0013   63.2209 N.pl3   1  ZINC000281257088   -0.3700
      5 C5        -10.1657    0.6000   63.7043 C.3     1  ZINC000281257088    0.1500
      6 C6        -10.2874    0.8912   65.2014 C.3     1  ZINC000281257088   -0.6400
      7 S7         -8.8647    0.1797   66.0734 S.o2    1  ZINC000281257088    2.4300
      8 C8         -7.4790    1.0836   65.3296 C.3     1  ZINC000281257088   -0.6500
      9 O9         -8.9517    0.5345   67.4467 O.2     1  ZINC000281257088   -0.9300
     10 O10        -8.7545   -1.1914   65.7167 O.2     1  ZINC000281257088   -0.9300
     11 C11       -11.5271   -0.8710   62.1956 C.2     1  ZINC000281257088    0.0900
     12 C12       -10.3999   -1.3964   61.3443 C.3     1  ZINC000281257088   -0.1000
     13 C13       -12.8361   -1.1911   62.0724 C.2     1  ZINC000281257088   -0.2300
     14 C14       -13.4263   -2.1337   61.0555 C.3     1  ZINC000281257088    0.1400
     15 N15       -14.4114   -1.4156   60.2359 N.3     1  ZINC000281257088   -0.6700
     16 C16       -15.0262   -2.3108   59.2468 C.3     1  ZINC000281257088    0.1400
     17 H17       -15.4470   -3.1788   59.7544 H       1  ZINC000281257088    0.0500
     18 C18       -13.9805   -2.7638   58.2606 C.ar    1  ZINC000281257088   -0.0800
     19 C19       -13.0084   -1.8802   57.8301 C.ar    1  ZINC000281257088   -0.0600
     20 C20       -12.0489   -2.2944   56.9258 C.ar    1  ZINC000281257088   -0.1600
     21 C21       -12.0613   -3.5951   56.4513 C.ar    1  ZINC000281257088    0.1000
     22 F22       -11.1236   -4.0013   55.5677 F       1  ZINC000281257088   -0.1400
     23 C23       -13.0351   -4.4793   56.8836 C.ar    1  ZINC000281257088   -0.1600
     24 C24       -13.9907   -4.0642   57.7916 C.ar    1  ZINC000281257088   -0.0900
     25 C25       -16.1375   -1.5652   58.5052 C.3     1  ZINC000281257088   -0.0600
     26 C26       -17.2372   -1.1738   59.4943 C.3     1  ZINC000281257088   -0.1400
     27 C27       -15.5616   -0.3043   57.8576 C.3     1  ZINC000281257088   -0.1400
     28 C28       -16.7252   -2.4720   57.4219 C.3     1  ZINC000281257088   -0.1500
     29 H29       -15.2669   -1.3355   63.9824 H       1  ZINC000281257088    0.0800
     30 H30       -15.3779    0.4137   63.6721 H       1  ZINC000281257088    0.0700
     31 H31       -15.5368   -0.7406   62.3266 H       1  ZINC000281257088    0.0800
     32 H32        -9.3392   -0.0900   63.5344 H       1  ZINC000281257088    0.1100
     33 H33        -9.9789    1.5300   63.1673 H       1  ZINC000281257088    0.1100
     34 H34       -10.3096    1.9691   65.3613 H       1  ZINC000281257088    0.1400
     35 H35       -11.2068    0.4482   65.5842 H       1  ZINC000281257088    0.1400
     36 H36        -7.6021    2.1512   65.5117 H       1  ZINC000281257088    0.1300
     37 H37        -6.5434    0.7445   65.7745 H       1  ZINC000281257088    0.1300
     38 H38        -7.4588    0.8982   64.2557 H       1  ZINC000281257088    0.1300
     39 H39       -10.0018   -2.3076   61.7906 H       1  ZINC000281257088    0.0800
     40 H40       -10.7720   -1.6147   60.3433 H       1  ZINC000281257088    0.0900
     41 H41        -9.6109   -0.6469   61.2833 H       1  ZINC000281257088    0.0700
     42 H42       -12.6334   -2.5202   60.4150 H       1  ZINC000281257088    0.0800
     43 H43       -13.9151   -2.9620   61.5684 H       1  ZINC000281257088    0.0300
     44 H44       -15.1135   -0.9790   60.8142 H       1  ZINC000281257088    0.3400
     45 H45       -12.9990   -0.8657   58.2004 H       1  ZINC000281257088    0.1400
     46 H46       -11.2900   -1.6037   56.5891 H       1  ZINC000281257088    0.1300
     47 H47       -13.0459   -5.4940   56.5139 H       1  ZINC000281257088    0.1300
     48 H48       -14.7502   -4.7539   58.1292 H       1  ZINC000281257088    0.1300
     49 H49       -16.8185   -0.5278   60.2660 H       1  ZINC000281257088    0.0600
     50 H50       -18.0289   -0.6426   58.9660 H       1  ZINC000281257088    0.0500
     51 H51       -17.6474   -2.0721   59.9557 H       1  ZINC000281257088    0.0600
     52 H52       -14.7782   -0.5832   57.1529 H       1  ZINC000281257088    0.0500
     53 H53       -16.3533    0.2269   57.3292 H       1  ZINC000281257088    0.0600
     54 H54       -15.1430    0.3417   58.6294 H       1  ZINC000281257088    0.0600
     55 H55       -17.2041   -3.3325   57.8889 H       1  ZINC000281257088    0.0500
     56 H56       -17.4623   -1.9156   56.8429 H       1  ZINC000281257088    0.0600
     57 H57       -15.9275   -2.8138   56.7622 H       1  ZINC000281257088    0.0600
@<TRIPOS>BOND
     1     1     2    1
     2     1    29    1
     3     1    30    1
     4     1    31    1
     5     2    13    1
     6     2     3    2
     7     3     4    1
     8     4     5    1
     9     4    11    1
    10     5     6    1
    11     5    32    1
    12     5    33    1
    13     6     7    1
    14     6    34    1
    15     6    35    1
    16     7     8    1
    17     7     9    2
    18     7    10    2
    19     8    36    1
    20     8    37    1
    21     8    38    1
    22    11    12    1
    23    11    13    2
    24    12    39    1
    25    12    40    1
    26    12    41    1
    27    13    14    1
    28    14    15    1
    29    14    42    1
    30    14    43    1
    31    15    16    1
    32    15    44    1
    33    16    17    1
    34    16    18    1
    35    16    25    1
    36    18    24   ar
    37    18    19   ar
    38    19    20   ar
    39    19    45    1
    40    20    21   ar
    41    20    46    1
    42    21    22    1
    43    21    23   ar
    44    23    24   ar
    45    23    47    1
    46    24    48    1
    47    25    26    1
    48    25    27    1
    49    25    28    1
    50    26    49    1
    51    26    50    1
    52    26    51    1
    53    27    52    1
    54    27    53    1
    55    27    54    1
    56    28    55    1
    57    28    56    1
    58    28    57    1
@<TRIPOS>SUBSTRUCTURE
     1 ZINC000281257088        1 TEMP              0 ****  ****    0 ROOT


##########                                Name:    ZINC000742270208
##########                DOCK_Rotatable_Bonds:                   5
##########                         Heavy_Atoms:                  25
##########                    Molecular_Weight:             376.328
##########                DOCK_Rotatable_Bonds:                   5
##########                       Formal_Charge:                0.02
##########                     HBond_Acceptors:                   9
##########                        HBond_Donors:                   0
##########                         Heavy_Atoms:                  25
##########                          Grid_Score:          -32.196026
##########                     Grid_vdw_energy:          -31.302967
##########                      Grid_es_energy:           -0.893060
##########           Internal_energy_repulsive:           12.470536

@<TRIPOS>MOLECULE
ZINC000742270208
 37 38 1 0 0
SMALL
USER_CHARGES


@<TRIPOS>ATOM
      1 C1        -11.7064   -3.2274   52.8879 C.3     1  ZINC000742270208   -0.1400
      2 C2        -12.9534   -3.0150   53.7486 C.3     1  ZINC000742270208   -0.1400
      3 C3        -14.2039   -3.2932   52.9122 C.3     1  ZINC000742270208   -0.1400
      4 C4        -12.9171   -3.9551   54.9259 C.2     1  ZINC000742270208    0.4000
      5 O5        -13.5753   -4.9733   54.9093 O.2     1  ZINC000742270208   -0.4300
      6 C6        -12.0828   -3.6373   56.0959 C.ar    1  ZINC000742270208   -0.1000
      7 C7        -11.5060   -2.3698   56.2244 C.ar    1  ZINC000742270208   -0.0900
      8 C8        -10.7255   -2.0798   57.3236 C.ar    1  ZINC000742270208   -0.0200
      9 C9        -10.5120   -3.0393   58.2978 C.ar    1  ZINC000742270208   -0.6800
     10 S10        -9.5132   -2.6588   59.6986 S.o2    1  ZINC000742270208    2.6600
     11 O11        -8.7290   -3.8150   59.9582 O.2     1  ZINC000742270208   -0.9300
     12 O12        -8.9506   -1.3770   59.4540 O.2     1  ZINC000742270208   -0.9000
     13 O13       -10.4484   -2.4978   60.8885 O.3     1  ZINC000742270208   -0.6400
     14 C14       -10.3387   -1.2982   61.5200 C.ar    1  ZINC000742270208    0.0500
     15 C15        -9.4343   -1.1411   62.5612 C.ar    1  ZINC000742270208    0.0900
     16 F16        -8.6621   -2.1799   62.9484 F       1  ZINC000742270208   -0.0900
     17 C17        -9.3238    0.0818   63.2029 C.ar    1  ZINC000742270208    0.1100
     18 F18        -8.4437    0.2352   64.2163 F       1  ZINC000742270208   -0.1000
     19 C19       -10.1142    1.1467   62.8060 C.ar    1  ZINC000742270208   -0.1100
     20 C20       -11.0171    0.9919   61.7679 C.ar    1  ZINC000742270208    0.1200
     21 F21       -11.7874    2.0327   61.3824 F       1  ZINC000742270208   -0.1000
     22 C22       -11.1269   -0.2278   61.1203 C.ar    1  ZINC000742270208    0.1200
     23 F23       -12.0078   -0.3783   60.1071 F       1  ZINC000742270208   -0.0900
     24 C24       -11.0795   -4.2960   58.1779 C.ar    1  ZINC000742270208   -0.0300
     25 C25       -11.8675   -4.5994   57.0878 C.ar    1  ZINC000742270208   -0.0800
     26 H26       -11.7326   -2.5475   52.0363 H       1  ZINC000742270208    0.0700
     27 H27       -10.8155   -3.0292   53.4838 H       1  ZINC000742270208    0.0600
     28 H28       -11.6827   -4.2568   52.5303 H       1  ZINC000742270208    0.0600
     29 H29       -12.9770   -1.9856   54.1062 H       1  ZINC000742270208    0.1000
     30 H30       -14.1802   -4.3226   52.5546 H       1  ZINC000742270208    0.0700
     31 H31       -15.0923   -3.1420   53.5254 H       1  ZINC000742270208    0.0600
     32 H32       -14.2301   -2.6133   52.0606 H       1  ZINC000742270208    0.0700
     33 H33       -11.6711   -1.6202   55.4646 H       1  ZINC000742270208    0.1500
     34 H34       -10.2794   -1.1014   57.4242 H       1  ZINC000742270208    0.1500
     35 H35       -10.0266    2.0996   63.3069 H       1  ZINC000742270208    0.1900
     36 H36       -10.9082   -5.0394   58.9423 H       1  ZINC000742270208    0.1500
     37 H37       -12.3096   -5.5805   56.9956 H       1  ZINC000742270208    0.1500
@<TRIPOS>BOND
     1     1     2    1
     2     1    26    1
     3     1    27    1
     4     1    28    1
     5     2     3    1
     6     2     4    1
     7     2    29    1
     8     3    30    1
     9     3    31    1
    10     3    32    1
    11     4     5    2
    12     4     6    1
    13     6    25   ar
    14     6     7   ar
    15     7     8   ar
    16     7    33    1
    17     8     9   ar
    18     8    34    1
    19     9    10    1
    20     9    24   ar
    21    10    11    2
    22    10    12    2
    23    10    13    1
    24    13    14    1
    25    14    22   ar
    26    14    15   ar
    27    15    16    1
    28    15    17   ar
    29    17    18    1
    30    17    19   ar
    31    19    20   ar
    32    19    35    1
    33    20    21    1
    34    20    22   ar
    35    22    23    1
    36    24    25   ar
    37    24    36    1
    38    25    37    1
@<TRIPOS>SUBSTRUCTURE
     1 ZINC000742270208        1 TEMP              0 ****  ****    0 ROOT


##########                                Name:    ZINC001344051361
##########                DOCK_Rotatable_Bonds:                   8
##########                         Heavy_Atoms:                  28
##########                    Molecular_Weight:             379.456
##########                DOCK_Rotatable_Bonds:                   8
##########                       Formal_Charge:          -0.0100006
##########                     HBond_Acceptors:                   5
##########                        HBond_Donors:                   0
##########                         Heavy_Atoms:                  28
##########                          Grid_Score:          -32.195713
##########                     Grid_vdw_energy:          -31.198822
##########                      Grid_es_energy:           -0.996893
##########           Internal_energy_repulsive:           18.168314

@<TRIPOS>MOLECULE
ZINC001344051361
 53 56 1 0 0
SMALL
USER_CHARGES


@<TRIPOS>ATOM
      1 O1         -9.6918   -0.8110   52.1137 O.2     1  ZINC001344051361   -0.4800
      2 C2        -10.1222   -0.3175   53.1292 C.2     1  ZINC001344051361    0.4800
      3 O3        -11.1847   -0.8622   53.7423 O.3     1  ZINC001344051361   -0.3500
      4 C4        -11.4915   -2.2455   53.4246 C.3     1  ZINC001344051361    0.0700
      5 C5        -12.6182   -2.7399   54.3342 C.3     1  ZINC001344051361   -0.1000
      6 H6        -13.1796   -1.8865   54.7145 H       1  ZINC001344051361    0.0900
      7 C7        -13.5535   -3.6530   53.5385 C.3     1  ZINC001344051361   -0.1200
      8 C8        -14.6990   -4.1218   54.4386 C.3     1  ZINC001344051361   -0.1300
      9 C9        -14.1260   -4.9216   55.6127 C.3     1  ZINC001344051361    0.0800
     10 N10       -13.1179   -4.1005   56.2971 N.am    1  ZINC001344051361   -0.6100
     11 C11       -13.1974   -3.8805   57.6245 C.2     1  ZINC001344051361    0.5600
     12 O12       -14.1093   -4.3635   58.2669 O.2     1  ZINC001344051361   -0.5300
     13 C13       -12.1755   -3.0520   58.2991 C.ar    1  ZINC001344051361   -0.1300
     14 C14       -12.4078   -1.6933   58.5183 C.ar    1  ZINC001344051361   -0.1000
     15 C15       -11.4503   -0.9259   59.1488 C.ar    1  ZINC001344051361   -0.1300
     16 C16       -10.2617   -1.5003   59.5630 C.ar    1  ZINC001344051361   -0.0900
     17 C17       -10.0249   -2.8464   59.3484 C.ar    1  ZINC001344051361   -0.1300
     18 C18       -10.9768   -3.6264   58.7247 C.ar    1  ZINC001344051361   -0.0600
     19 C19       -12.0215   -3.5233   55.5076 C.3     1  ZINC001344051361    0.1200
     20 C20        -9.4620    0.9059   53.7109 C.3     1  ZINC001344051361    0.0200
     21 O21        -8.7144    1.7005   52.7879 O.3     1  ZINC001344051361   -0.2500
     22 C22        -9.4155    2.3394   51.8148 C.ar    1  ZINC001344051361    0.1200
     23 C23       -10.8021    2.2915   51.8120 C.ar    1  ZINC001344051361   -0.2000
     24 C24       -11.5125    2.9422   50.8219 C.ar    1  ZINC001344051361   -0.0800
     25 C25       -10.8428    3.6405   49.8340 C.ar    1  ZINC001344051361   -0.1500
     26 C26        -9.4611    3.6894   49.8344 C.ar    1  ZINC001344051361   -0.0800
     27 C27        -8.7462    3.0456   50.8258 C.ar    1  ZINC001344051361   -0.1400
     28 C28       -10.1941    1.6346   54.8395 C.3     1  ZINC001344051361   -0.1700
     29 C29        -8.9408    0.8125   55.1463 C.3     1  ZINC001344051361   -0.1100
     30 H30       -11.8066   -2.3180   52.3838 H       1  ZINC001344051361    0.0800
     31 H31       -10.6041   -2.8592   53.5791 H       1  ZINC001344051361    0.0800
     32 H32       -13.9604   -3.1046   52.6889 H       1  ZINC001344051361    0.0700
     33 H33       -12.9969   -4.5184   53.1788 H       1  ZINC001344051361    0.0700
     34 H34       -15.2410   -3.2558   54.8185 H       1  ZINC001344051361    0.0700
     35 H35       -15.3774   -4.7533   53.8649 H       1  ZINC001344051361    0.0800
     36 H36       -14.9262   -5.1731   56.3087 H       1  ZINC001344051361    0.1100
     37 H37       -13.6619   -5.8350   55.2407 H       1  ZINC001344051361    0.0700
     38 H38       -13.3349   -1.2436   58.1947 H       1  ZINC001344051361    0.1400
     39 H39       -11.6287    0.1256   59.3191 H       1  ZINC001344051361    0.1300
     40 H40        -9.5152   -0.8950   60.0559 H       1  ZINC001344051361    0.1300
     41 H41        -9.0949   -3.2885   59.6739 H       1  ZINC001344051361    0.1300
     42 H42       -10.7909   -4.6772   58.5580 H       1  ZINC001344051361    0.1300
     43 H43       -11.3854   -4.3224   55.1268 H       1  ZINC001344051361    0.0700
     44 H44       -11.4334   -2.8528   56.1344 H       1  ZINC001344051361    0.1000
     45 H45       -11.3255    1.7456   52.5829 H       1  ZINC001344051361    0.1300
     46 H46       -12.5919    2.9051   50.8192 H       1  ZINC001344051361    0.1300
     47 H47       -11.4001    4.1482   49.0607 H       1  ZINC001344051361    0.1300
     48 H48        -8.9403    4.2352   49.0615 H       1  ZINC001344051361    0.1300
     49 H49        -7.6669    3.0840   50.8257 H       1  ZINC001344051361    0.1300
     50 H50       -10.1057    2.7203   54.8783 H       1  ZINC001344051361    0.1200
     51 H51       -11.1533    1.2290   55.1614 H       1  ZINC001344051361    0.1200
     52 H52        -9.0754   -0.1340   55.6700 H       1  ZINC001344051361    0.1200
     53 H53        -8.0278    1.3573   55.3868 H       1  ZINC001344051361    0.1200
@<TRIPOS>BOND
     1     1     2    2
     2     2     3    1
     3     2    20    1
     4     3     4    1
     5     4     5    1
     6     4    30    1
     7     4    31    1
     8     5     6    1
     9     5    19    1
    10     5     7    1
    11     7     8    1
    12     7    32    1
    13     7    33    1
    14     8     9    1
    15     8    34    1
    16     8    35    1
    17     9    10    1
    18     9    36    1
    19     9    37    1
    20    10    11   am
    21    10    19    1
    22    11    12    2
    23    11    13    1
    24    13    18   ar
    25    13    14   ar
    26    14    15   ar
    27    14    38    1
    28    15    16   ar
    29    15    39    1
    30    16    17   ar
    31    16    40    1
    32    17    18   ar
    33    17    41    1
    34    18    42    1
    35    19    43    1
    36    19    44    1
    37    20    29    1
    38    20    21    1
    39    20    28    1
    40    21    22    1
    41    22    27   ar
    42    22    23   ar
    43    23    24   ar
    44    23    45    1
    45    24    25   ar
    46    24    46    1
    47    25    26   ar
    48    25    47    1
    49    26    27   ar
    50    26    48    1
    51    27    49    1
    52    28    29    1
    53    28    50    1
    54    28    51    1
    55    29    52    1
    56    29    53    1
@<TRIPOS>SUBSTRUCTURE
     1 ZINC001344051361        1 TEMP              0 ****  ****    0 ROOT


##########                                Name:    ZINC000867639366
##########                DOCK_Rotatable_Bonds:                   6
##########                         Heavy_Atoms:                  25
##########                    Molecular_Weight:             388.509
##########                DOCK_Rotatable_Bonds:                   6
##########                       Formal_Charge:          0.00999961
##########                     HBond_Acceptors:                   9
##########                        HBond_Donors:                   1
##########                         Heavy_Atoms:                  25
##########                          Grid_Score:          -32.162109
##########                     Grid_vdw_energy:          -30.085800
##########                      Grid_es_energy:           -2.076310
##########           Internal_energy_repulsive:           40.838108

@<TRIPOS>MOLECULE
ZINC000867639366
 49 51 1 0 0
SMALL
USER_CHARGES


@<TRIPOS>ATOM
      1 C1        -12.4725   -2.2851   55.1567 C.3     1  ZINC000867639366    0.0300
      2 O2        -11.7771   -1.8833   56.3386 O.3     1  ZINC000867639366   -0.3800
      3 C3        -11.2509   -2.9710   57.1016 C.3     1  ZINC000867639366    0.0800
      4 H4        -10.7261   -3.6596   56.4393 H       1  ZINC000867639366    0.0800
      5 C5        -12.3970   -3.7071   57.7993 C.3     1  ZINC000867639366   -0.1400
      6 C6        -13.1554   -2.7330   58.7037 C.3     1  ZINC000867639366   -0.1200
      7 C7        -12.2044   -2.1922   59.7761 C.3     1  ZINC000867639366    0.1500
      8 H8        -11.8910   -3.0057   60.4303 H       1  ZINC000867639366    0.0800
      9 C9        -12.9174   -1.1176   60.5993 C.3     1  ZINC000867639366   -0.1900
     10 N10       -11.0281   -1.6107   59.1151 N.am    1  ZINC000867639366   -0.9800
     11 S11       -10.5561   -0.0582   59.4456 S.o2    1  ZINC000867639366    2.6900
     12 O12        -9.3207    0.1378   58.7711 O.2     1  ZINC000867639366   -0.9500
     13 O13       -11.6966    0.7620   59.2323 O.2     1  ZINC000867639366   -0.9400
     14 C14       -10.2001    0.0230   61.1693 C.ar    1  ZINC000867639366   -0.6300
     15 C15        -9.5437   -1.0237   61.7895 C.ar    1  ZINC000867639366   -0.0500
     16 C16        -9.2644   -0.9601   63.1419 C.ar    1  ZINC000867639366   -0.0400
     17 C17        -9.6409    0.1504   63.8739 C.ar    1  ZINC000867639366   -0.6300
     18 S18        -9.2854    0.2313   65.5978 S.o2    1  ZINC000867639366    2.7000
     19 O19       -10.4651    0.7103   66.2287 O.2     1  ZINC000867639366   -0.9400
     20 O20        -8.6679   -1.0024   65.9384 O.2     1  ZINC000867639366   -0.9500
     21 N21        -8.1346    1.4037   65.8065 N.am    1  ZINC000867639366   -1.0800
     22 C22        -6.8329    1.2780   65.1462 C.3     1  ZINC000867639366    0.0800
     23 C23        -5.7002    2.1801   65.6402 C.3     1  ZINC000867639366   -0.1800
     24 C24        -5.6819    0.6842   65.9609 C.3     1  ZINC000867639366   -0.1900
     25 C25       -10.2961    1.1977   63.2534 C.ar    1  ZINC000867639366   -0.0400
     26 C26       -10.5720    1.1357   61.9003 C.ar    1  ZINC000867639366   -0.0400
     27 C27       -10.2777   -2.4330   58.1551 C.3     1  ZINC000867639366    0.1200
     28 H28       -11.7940   -2.8361   54.5056 H       1  ZINC000867639366    0.0400
     29 H29       -13.3132   -2.9232   55.4290 H       1  ZINC000867639366    0.0400
     30 H30       -12.8408   -1.4022   54.6341 H       1  ZINC000867639366    0.0900
     31 H31       -13.0777   -4.1122   57.0503 H       1  ZINC000867639366    0.0700
     32 H32       -11.9929   -4.5214   58.4006 H       1  ZINC000867639366    0.0700
     33 H33       -13.5388   -1.9055   58.1068 H       1  ZINC000867639366    0.0800
     34 H34       -13.9858   -3.2522   59.1824 H       1  ZINC000867639366    0.0800
     35 H35       -13.7107   -1.5779   61.1884 H       1  ZINC000867639366    0.0700
     36 H36       -12.2020   -0.6365   61.2662 H       1  ZINC000867639366    0.0600
     37 H37       -13.3476   -0.3728   59.9297 H       1  ZINC000867639366    0.1000
     38 H38        -9.2495   -1.8914   61.2176 H       1  ZINC000867639366    0.1600
     39 H39        -8.7522   -1.7781   63.6266 H       1  ZINC000867639366    0.1500
     40 H40        -8.3223    2.1735   66.3659 H       1  ZINC000867639366    0.4200
     41 H41        -6.8662    1.0489   64.0810 H       1  ZINC000867639366    0.1400
     42 H42        -4.9881    2.5450   64.9000 H       1  ZINC000867639366    0.1100
     43 H43        -5.9236    2.8671   66.4565 H       1  ZINC000867639366    0.1000
     44 H44        -5.8932    0.3871   66.9881 H       1  ZINC000867639366    0.1000
     45 H45        -4.9579    0.0649   65.4316 H       1  ZINC000867639366    0.1000
     46 H46       -10.5899    2.0654   63.8253 H       1  ZINC000867639366    0.1500
     47 H47       -11.0838    1.9538   61.4155 H       1  ZINC000867639366    0.1500
     48 H48        -9.8071   -3.2662   58.6773 H       1  ZINC000867639366    0.0900
     49 H49        -9.5141   -1.8244   57.6711 H       1  ZINC000867639366    0.1000
@<TRIPOS>BOND
     1     1     2    1
     2     1    28    1
     3     1    29    1
     4     1    30    1
     5     2     3    1
     6     3     4    1
     7     3    27    1
     8     3     5    1
     9     5     6    1
    10     5    31    1
    11     5    32    1
    12     6     7    1
    13     6    33    1
    14     6    34    1
    15     7     8    1
    16     7     9    1
    17     7    10    1
    18     9    35    1
    19     9    36    1
    20     9    37    1
    21    10    11   am
    22    10    27    1
    23    11    12    2
    24    11    13    2
    25    11    14    1
    26    14    26   ar
    27    14    15   ar
    28    15    16   ar
    29    15    38    1
    30    16    17   ar
    31    16    39    1
    32    17    18    1
    33    17    25   ar
    34    18    19    2
    35    18    20    2
    36    18    21   am
    37    21    22    1
    38    21    40    1
    39    22    24    1
    40    22    23    1
    41    22    41    1
    42    23    24    1
    43    23    42    1
    44    23    43    1
    45    24    44    1
    46    24    45    1
    47    25    26   ar
    48    25    46    1
    49    26    47    1
    50    27    48    1
    51    27    49    1
@<TRIPOS>SUBSTRUCTURE
     1 ZINC000867639366        1 TEMP              0 ****  ****    0 ROOT


##########                                Name:    ZINC000482962466
##########                DOCK_Rotatable_Bonds:                   2
##########                         Heavy_Atoms:                  25
##########                    Molecular_Weight:             404.303
##########                DOCK_Rotatable_Bonds:                   2
##########                       Formal_Charge:           0.0200002
##########                     HBond_Acceptors:                   4
##########                        HBond_Donors:                   0
##########                         Heavy_Atoms:                  25
##########                          Grid_Score:          -32.140514
##########                     Grid_vdw_energy:          -32.196236
##########                      Grid_es_energy:            0.055721
##########           Internal_energy_repulsive:            6.268964

@<TRIPOS>MOLECULE
ZINC000482962466
 47 50 1 0 0
SMALL
USER_CHARGES


@<TRIPOS>ATOM
      1 C1        -14.6937   -2.7031   60.1893 C.3     1  ZINC000482962466   -0.1400
      2 C2        -13.6423   -2.3272   59.1432 C.3     1  ZINC000482962466    0.0700
      3 H3        -13.4585   -1.2535   59.1814 H       1  ZINC000482962466    0.0700
      4 C4        -14.1479   -2.7109   57.7479 C.3     1  ZINC000482962466    0.0800
      5 N5        -13.0523   -2.5139   56.7857 N.am    1  ZINC000482962466   -0.6100
      6 C6        -13.2416   -1.8077   55.6535 C.2     1  ZINC000482962466    0.5600
      7 O7        -14.3303   -1.3223   55.4148 O.2     1  ZINC000482962466   -0.5200
      8 C8        -12.1259   -1.6234   54.7024 C.ar    1  ZINC000482962466   -0.1100
      9 C9        -11.7317   -2.6894   53.8744 C.ar    1  ZINC000482962466   -0.0700
     10 C10       -10.7098   -2.5448   52.9927 C.ar    1  ZINC000482962466   -0.1000
     11 C11       -10.0300   -1.3167   52.8983 C.ar    1  ZINC000482962466   -0.0400
     12 C12        -8.9699   -1.1433   51.9935 C.ar    1  ZINC000482962466   -0.0700
     13 C13        -8.3307    0.0578   51.9243 C.ar    1  ZINC000482962466   -0.0800
     14 Br14       -6.9045    0.2849   50.7036 Br      1  ZINC000482962466   -0.0400
     15 C15        -8.7126    1.1227   52.7400 C.ar    1  ZINC000482962466   -0.1000
     16 C16        -9.7347    0.9917   53.6286 C.ar    1  ZINC000482962466   -0.0900
     17 C17       -10.4186   -0.2337   53.7278 C.ar    1  ZINC000482962466   -0.0500
     18 C18       -11.4801   -0.4001   54.6291 C.ar    1  ZINC000482962466   -0.0700
     19 C19       -11.7436   -3.1113   57.0963 C.3     1  ZINC000482962466    0.0700
     20 C20       -11.3563   -2.7107   58.5232 C.3     1  ZINC000482962466    0.0800
     21 C21       -10.0963   -3.4719   58.9429 C.3     1  ZINC000482962466   -0.1100
     22 C22        -9.6724   -3.0049   60.3390 C.3     1  ZINC000482962466   -0.1500
     23 C23        -9.4587   -1.4891   60.3182 C.3     1  ZINC000482962466    0.0600
     24 O24       -10.6606   -0.8448   59.8911 O.3     1  ZINC000482962466   -0.3700
     25 C25       -11.0796   -1.2067   58.5735 C.3     1  ZINC000482962466    0.0400
     26 O26       -12.4267   -3.0296   59.4140 O.3     1  ZINC000482962466   -0.3500
     27 H27       -14.3327   -2.4317   61.1812 H       1  ZINC000482962466    0.0700
     28 H28       -15.6206   -2.1687   59.9811 H       1  ZINC000482962466    0.0800
     29 H29       -14.8769   -3.7769   60.1506 H       1  ZINC000482962466    0.0700
     30 H30       -14.4562   -3.7565   57.7440 H       1  ZINC000482962466    0.0800
     31 H31       -14.9929   -2.0778   57.4767 H       1  ZINC000482962466    0.1000
     32 H32       -12.2482   -3.6356   53.9412 H       1  ZINC000482962466    0.1400
     33 H33       -10.4182   -3.3729   52.3637 H       1  ZINC000482962466    0.1400
     34 H34        -8.6624   -1.9587   51.3556 H       1  ZINC000482962466    0.1400
     35 H35        -8.1895    2.0646   52.6655 H       1  ZINC000482962466    0.1400
     36 H36       -10.0195    1.8244   54.2545 H       1  ZINC000482962466    0.1400
     37 H37       -11.7886    0.4175   55.2639 H       1  ZINC000482962466    0.1400
     38 H38       -11.8093   -4.1971   57.0247 H       1  ZINC000482962466    0.0900
     39 H39       -10.9954   -2.7414   56.3952 H       1  ZINC000482962466    0.1000
     40 H40       -10.3064   -4.5412   58.9643 H       1  ZINC000482962466    0.0800
     41 H41        -9.2949   -3.2705   58.2321 H       1  ZINC000482962466    0.0800
     42 H42       -10.4526   -3.2529   61.0586 H       1  ZINC000482962466    0.0800
     43 H43        -8.7434   -3.4998   60.6223 H       1  ZINC000482962466    0.0800
     44 H44        -9.1980   -1.1451   61.3191 H       1  ZINC000482962466    0.1000
     45 H45        -8.6508   -1.2454   59.6283 H       1  ZINC000482962466    0.0500
     46 H46       -10.2935   -0.9578   57.8607 H       1  ZINC000482962466    0.0600
     47 H47       -11.9881   -0.6612   58.3183 H       1  ZINC000482962466    0.1000
@<TRIPOS>BOND
     1     1     2    1
     2     1    27    1
     3     1    28    1
     4     1    29    1
     5     2     3    1
     6     2    26    1
     7     2     4    1
     8     4     5    1
     9     4    30    1
    10     4    31    1
    11     5     6   am
    12     5    19    1
    13     6     7    2
    14     6     8    1
    15     8    18   ar
    16     8     9   ar
    17     9    10   ar
    18     9    32    1
    19    10    11   ar
    20    10    33    1
    21    11    17   ar
    22    11    12   ar
    23    12    13   ar
    24    12    34    1
    25    13    14    1
    26    13    15   ar
    27    15    16   ar
    28    15    35    1
    29    16    17   ar
    30    16    36    1
    31    17    18   ar
    32    18    37    1
    33    19    20    1
    34    19    38    1
    35    19    39    1
    36    20    25    1
    37    20    21    1
    38    20    26    1
    39    21    22    1
    40    21    40    1
    41    21    41    1
    42    22    23    1
    43    22    42    1
    44    22    43    1
    45    23    24    1
    46    23    44    1
    47    23    45    1
    48    24    25    1
    49    25    46    1
    50    25    47    1
@<TRIPOS>SUBSTRUCTURE
     1 ZINC000482962466        1 TEMP              0 ****  ****    0 ROOT


##########                                Name:    ZINC000650955167
##########                DOCK_Rotatable_Bonds:                   9
##########                         Heavy_Atoms:                  26
##########                    Molecular_Weight:             361.484
##########                DOCK_Rotatable_Bonds:                   9
##########                       Formal_Charge:        -7.07805e-07
##########                     HBond_Acceptors:                   6
##########                        HBond_Donors:                   2
##########                         Heavy_Atoms:                  26
##########                          Grid_Score:          -32.138645
##########                     Grid_vdw_energy:          -30.935215
##########                      Grid_es_energy:           -1.203430
##########           Internal_energy_repulsive:           21.728962

@<TRIPOS>MOLECULE
ZINC000650955167
 57 59 1 0 0
SMALL
USER_CHARGES


@<TRIPOS>ATOM
      1 C1        -14.0770   -5.4480   55.0059 C.3     1  ZINC000650955167    0.0200
      2 O2        -13.3237   -4.8433   56.0590 O.3     1  ZINC000650955167   -0.3200
      3 C3        -14.0266   -4.2219   57.0422 C.ar    1  ZINC000650955167    0.1300
      4 C4        -14.6822   -4.9717   58.0075 C.ar    1  ZINC000650955167   -0.2000
      5 C5        -15.3958   -4.3375   59.0065 C.ar    1  ZINC000650955167   -0.0800
      6 C6        -15.4570   -2.9570   59.0440 C.ar    1  ZINC000650955167   -0.1500
      7 C7        -14.8047   -2.2072   58.0824 C.ar    1  ZINC000650955167   -0.0800
      8 C8        -14.0849   -2.8362   57.0853 C.ar    1  ZINC000650955167   -0.1100
      9 C9        -13.3738   -2.0186   56.0381 C.3     1  ZINC000650955167   -0.0800
     10 C10       -11.9160   -1.8129   56.4547 C.3     1  ZINC000650955167    0.1800
     11 H11       -11.3670   -2.7460   56.3287 H       1  ZINC000650955167    0.0900
     12 N12       -11.8632   -1.4010   57.8597 N.am    1  ZINC000650955167   -0.7300
     13 C13       -10.9407   -1.9354   58.6842 C.2     1  ZINC000650955167    0.7400
     14 O14       -10.1513   -2.7580   58.2617 O.2     1  ZINC000650955167   -0.5800
     15 N15       -10.8932   -1.5577   59.9771 N.am    1  ZINC000650955167   -0.6700
     16 C16       -11.6468   -0.6347   60.8392 C.3     1  ZINC000650955167    0.1100
     17 C17       -10.3828   -0.4910   61.6981 C.3     1  ZINC000650955167    0.0300
     18 N18       -10.6380   -0.4578   63.1445 N.3     1  ZINC000650955167   -0.5100
     19 C19       -11.3711    0.7684   63.5251 C.3     1  ZINC000650955167    0.0400
     20 C20       -10.8415    1.1239   64.9367 C.3     1  ZINC000650955167   -0.1600
     21 C21        -9.3432    0.7406   64.8150 C.3     1  ZINC000650955167    0.0800
     22 H22        -8.7764    1.5452   64.3465 H       1  ZINC000650955167    0.0600
     23 O23        -8.7978    0.4204   66.0965 O.3     1  ZINC000650955167   -0.5600
     24 C24        -9.3758   -0.5053   63.9050 C.3     1  ZINC000650955167    0.0500
     25 C25       -10.0690   -1.8922   61.1484 C.3     1  ZINC000650955167    0.1400
     26 C26       -11.2843   -0.7273   55.5810 C.3     1  ZINC000650955167   -0.1100
     27 C27       -11.5196   -1.0589   54.1059 C.3     1  ZINC000650955167   -0.1400
     28 C28       -11.9211    0.6250   55.9076 C.3     1  ZINC000650955167   -0.1500
     29 H29       -13.3960   -5.9076   54.2896 H       1  ZINC000650955167    0.1000
     30 H30       -14.7355   -6.2106   55.4218 H       1  ZINC000650955167    0.0600
     31 H31       -14.6741   -4.6872   54.5031 H       1  ZINC000650955167    0.0600
     32 H32       -14.6353   -6.0503   57.9784 H       1  ZINC000650955167    0.1300
     33 H33       -15.9064   -4.9209   59.7584 H       1  ZINC000650955167    0.1200
     34 H34       -16.0155   -2.4632   59.8253 H       1  ZINC000650955167    0.1200
     35 H35       -14.8543   -1.1288   58.1137 H       1  ZINC000650955167    0.1300
     36 H36       -13.4081   -2.5426   55.0828 H       1  ZINC000650955167    0.0900
     37 H37       -13.8635   -1.0499   55.9389 H       1  ZINC000650955167    0.0800
     38 H38       -12.4922   -0.7439   58.1964 H       1  ZINC000650955167    0.4000
     39 H39       -11.9378    0.2880   60.3373 H       1  ZINC000650955167    0.0700
     40 H40       -12.4761   -1.1098   61.3633 H       1  ZINC000650955167    0.0900
     41 H41        -9.7011    0.2906   61.3629 H       1  ZINC000650955167    0.0900
     42 H42       -11.1528    1.5740   62.8239 H       1  ZINC000650955167    0.0500
     43 H43       -12.4431    0.5744   63.5596 H       1  ZINC000650955167    0.0900
     44 H44       -10.9570    2.1884   65.1405 H       1  ZINC000650955167    0.0800
     45 H45       -11.3367    0.5255   65.7015 H       1  ZINC000650955167    0.0900
     46 H46        -8.8186    1.1532   66.7270 H       1  ZINC000650955167    0.3800
     47 H47        -9.3430   -1.4095   64.5128 H       1  ZINC000650955167    0.0900
     48 H48        -8.5287   -0.4859   63.2192 H       1  ZINC000650955167    0.0700
     49 H49       -10.4792   -2.6988   61.7560 H       1  ZINC000650955167    0.0900
     50 H50        -9.0159   -2.0385   60.9082 H       1  ZINC000650955167    0.0800
     51 H51       -10.2130   -0.6811   55.7766 H       1  ZINC000650955167    0.0700
     52 H52       -12.5909   -1.1050   53.9102 H       1  ZINC000650955167    0.0600
     53 H53       -11.0696   -0.2854   53.4835 H       1  ZINC000650955167    0.0400
     54 H54       -11.0659   -2.0222   53.8732 H       1  ZINC000650955167    0.0500
     55 H55       -11.7536    0.8611   56.9584 H       1  ZINC000650955167    0.0600
     56 H56       -11.4712    1.3983   55.2851 H       1  ZINC000650955167    0.0600
     57 H57       -12.9925    0.5787   55.7119 H       1  ZINC000650955167    0.0600
@<TRIPOS>BOND
     1     1     2    1
     2     1    29    1
     3     1    30    1
     4     1    31    1
     5     2     3    1
     6     3     8   ar
     7     3     4   ar
     8     4     5   ar
     9     4    32    1
    10     5     6   ar
    11     5    33    1
    12     6     7   ar
    13     6    34    1
    14     7     8   ar
    15     7    35    1
    16     8     9    1
    17     9    10    1
    18     9    36    1
    19     9    37    1
    20    10    11    1
    21    10    12    1
    22    10    26    1
    23    12    13   am
    24    12    38    1
    25    13    14    2
    26    13    15   am
    27    15    25    1
    28    15    16    1
    29    16    17    1
    30    16    39    1
    31    16    40    1
    32    17    18    1
    33    17    25    1
    34    17    41    1
    35    18    24    1
    36    18    19    1
    37    19    20    1
    38    19    42    1
    39    19    43    1
    40    20    21    1
    41    20    44    1
    42    20    45    1
    43    21    22    1
    44    21    23    1
    45    21    24    1
    46    23    46    1
    47    24    47    1
    48    24    48    1
    49    25    49    1
    50    25    50    1
    51    26    27    1
    52    26    28    1
    53    26    51    1
    54    27    52    1
    55    27    53    1
    56    27    54    1
    57    28    55    1
    58    28    56    1
    59    28    57    1
@<TRIPOS>SUBSTRUCTURE
     1 ZINC000650955167        1 TEMP              0 ****  ****    0 ROOT


##########                                Name:    ZINC000469435497
##########                DOCK_Rotatable_Bonds:                   6
##########                         Heavy_Atoms:                  27
##########                    Molecular_Weight:             364.444
##########                DOCK_Rotatable_Bonds:                   6
##########                       Formal_Charge:           0.0300001
##########                     HBond_Acceptors:                   5
##########                        HBond_Donors:                   2
##########                         Heavy_Atoms:                  27
##########                          Grid_Score:          -32.079155
##########                     Grid_vdw_energy:          -32.169487
##########                      Grid_es_energy:            0.090331
##########           Internal_energy_repulsive:            4.835873

@<TRIPOS>MOLECULE
ZINC000469435497
 51 54 1 0 0
SMALL
USER_CHARGES


@<TRIPOS>ATOM
      1 C1        -11.1165   -4.0278   57.1333 C.3     1  ZINC000469435497   -0.1600
      2 C2        -12.4168   -3.8586   56.3451 C.3     1  ZINC000469435497    0.1000
      3 C3        -13.5543   -4.6399   57.0057 C.3     1  ZINC000469435497   -0.1400
      4 C4        -12.7828   -2.3619   56.2066 C.3     1  ZINC000469435497   -0.1000
      5 C5        -12.1467   -2.0051   54.8769 C.ar    1  ZINC000469435497   -0.1500
      6 C6        -11.8555   -0.7954   54.2883 C.ar    1  ZINC000469435497   -0.0700
      7 C7        -11.2513   -0.7607   53.0373 C.ar    1  ZINC000469435497    0.1100
      8 N8        -10.9520    0.4675   52.4331 N.am    1  ZINC000469435497   -0.6600
      9 C9         -9.7539    1.0478   52.6436 C.2     1  ZINC000469435497    0.5100
     10 O10        -8.9349    0.5068   53.3561 O.2     1  ZINC000469435497   -0.5200
     11 C11        -9.4319    2.3688   51.9938 C.3     1  ZINC000469435497    0.1000
     12 N12        -7.9864    2.6003   52.0479 N.am    1  ZINC000469435497   -0.7200
     13 C13        -7.1818    2.0590   51.1119 C.2     1  ZINC000469435497    0.5700
     14 O14        -7.6554    1.3777   50.2237 O.2     1  ZINC000469435497   -0.5300
     15 C15        -5.7231    2.2940   51.1656 C.ar    1  ZINC000469435497   -0.1400
     16 C16        -5.1652    3.0021   52.2308 C.ar    1  ZINC000469435497   -0.0800
     17 C17        -3.8041    3.2165   52.2725 C.ar    1  ZINC000469435497   -0.1100
     18 C18        -2.9864    2.7331   51.2629 C.ar    1  ZINC000469435497   -0.0700
     19 C19        -1.4862    2.8378   51.0852 C.3     1  ZINC000469435497   -0.0900
     20 C20        -1.1260    1.7565   50.0447 C.3     1  ZINC000469435497   -0.1200
     21 C21        -2.4381    1.6158   49.2444 C.3     1  ZINC000469435497   -0.0800
     22 C22        -3.5337    2.0301   50.2036 C.ar    1  ZINC000469435497   -0.1100
     23 C23        -4.8962    1.8044   50.1547 C.ar    1  ZINC000469435497   -0.0400
     24 C24       -10.9457   -1.9501   52.3898 C.ar    1  ZINC000469435497   -0.1000
     25 C25       -11.2427   -3.1600   52.9812 C.ar    1  ZINC000469435497   -0.1200
     26 C26       -11.8509   -3.2002   54.2333 C.ar    1  ZINC000469435497    0.1000
     27 O27       -12.2417   -4.2712   54.9790 O.3     1  ZINC000469435497   -0.3000
     28 H28       -10.3279   -3.4392   56.6642 H       1  ZINC000469435497    0.0600
     29 H29       -11.2651   -3.6854   58.1573 H       1  ZINC000469435497    0.0800
     30 H30       -10.8298   -5.0795   57.1399 H       1  ZINC000469435497    0.0700
     31 H31       -13.7149   -4.2633   58.0160 H       1  ZINC000469435497    0.0800
     32 H32       -14.4668   -4.5161   56.4226 H       1  ZINC000469435497    0.0700
     33 H33       -13.2916   -5.6968   57.0494 H       1  ZINC000469435497    0.0700
     34 H34       -13.8638   -2.2270   56.1699 H       1  ZINC000469435497    0.0900
     35 H35       -12.3461   -1.7776   57.0166 H       1  ZINC000469435497    0.0900
     36 H36       -12.0966    0.1258   54.7978 H       1  ZINC000469435497    0.1400
     37 H37       -11.6070    0.9001   51.8632 H       1  ZINC000469435497    0.4200
     38 H38        -9.7584    2.3514   50.9540 H       1  ZINC000469435497    0.1100
     39 H39        -9.9482    3.1696   52.5233 H       1  ZINC000469435497    0.1100
     40 H40        -7.6083    3.1430   52.7574 H       1  ZINC000469435497    0.4100
     41 H41        -5.7977    3.3812   53.0199 H       1  ZINC000469435497    0.1300
     42 H42        -3.3722    3.7648   53.0967 H       1  ZINC000469435497    0.1300
     43 H43        -1.2177    3.8262   50.7120 H       1  ZINC000469435497    0.0900
     44 H44        -0.9787    2.6384   52.0290 H       1  ZINC000469435497    0.0800
     45 H45        -0.3138    2.0937   49.4008 H       1  ZINC000469435497    0.0800
     46 H46        -0.8687    0.8176   50.5350 H       1  ZINC000469435497    0.0700
     47 H47        -2.4249    2.2761   48.3773 H       1  ZINC000469435497    0.0800
     48 H48        -2.5810    0.5816   48.9312 H       1  ZINC000469435497    0.0800
     49 H49        -5.3218    1.2509   49.3307 H       1  ZINC000469435497    0.1400
     50 H50       -10.4737   -1.9277   51.4187 H       1  ZINC000469435497    0.1400
     51 H51       -11.0022   -4.0810   52.4710 H       1  ZINC000469435497    0.1300
@<TRIPOS>BOND
     1     1     2    1
     2     1    28    1
     3     1    29    1
     4     1    30    1
     5     2    27    1
     6     2     3    1
     7     2     4    1
     8     3    31    1
     9     3    32    1
    10     3    33    1
    11     4     5    1
    12     4    34    1
    13     4    35    1
    14     5    26   ar
    15     5     6   ar
    16     6     7   ar
    17     6    36    1
    18     7     8    1
    19     7    24   ar
    20     8     9   am
    21     8    37    1
    22     9    10    2
    23     9    11    1
    24    11    12    1
    25    11    38    1
    26    11    39    1
    27    12    13   am
    28    12    40    1
    29    13    14    2
    30    13    15    1
    31    15    23   ar
    32    15    16   ar
    33    16    17   ar
    34    16    41    1
    35    17    18   ar
    36    17    42    1
    37    18    22   ar
    38    18    19    1
    39    19    20    1
    40    19    43    1
    41    19    44    1
    42    20    21    1
    43    20    45    1
    44    20    46    1
    45    21    22    1
    46    21    47    1
    47    21    48    1
    48    22    23   ar
    49    23    49    1
    50    24    25   ar
    51    24    50    1
    52    25    26   ar
    53    25    51    1
    54    26    27    1
@<TRIPOS>SUBSTRUCTURE
     1 ZINC000469435497        1 TEMP              0 ****  ****    0 ROOT


##########                                Name:    ZINC000194290865
##########                DOCK_Rotatable_Bonds:                   7
##########                         Heavy_Atoms:                  28
##########                    Molecular_Weight:             387.479
##########                DOCK_Rotatable_Bonds:                   7
##########                       Formal_Charge:          -0.0400003
##########                     HBond_Acceptors:                   7
##########                        HBond_Donors:                   0
##########                         Heavy_Atoms:                  28
##########                          Grid_Score:          -32.070141
##########                     Grid_vdw_energy:          -31.811586
##########                      Grid_es_energy:           -0.258555
##########           Internal_energy_repulsive:           38.217617

@<TRIPOS>MOLECULE
ZINC000194290865
 57 59 1 0 0
SMALL
USER_CHARGES


@<TRIPOS>ATOM
      1 C1        -10.4743    0.0044   63.3132 C.3     1  ZINC000194290865   -0.1500
      2 C2        -10.5012    0.4881   61.8619 C.3     1  ZINC000194290865    0.0600
      3 O3        -11.0230   -0.5656   61.0101 O.3     1  ZINC000194290865   -0.3600
      4 C4        -11.1761   -0.2770   59.7082 C.2     1  ZINC000194290865    0.4700
      5 O5        -10.8005    0.7874   59.2771 O.2     1  ZINC000194290865   -0.4900
      6 C6        -11.8166   -1.2805   58.7841 C.3     1  ZINC000194290865   -0.0600
      7 C7        -11.2990   -2.6877   59.0882 C.3     1  ZINC000194290865   -0.0700
      8 C8        -11.8669   -3.6725   58.0641 C.3     1  ZINC000194290865   -0.1700
      9 C9         -9.7710   -2.6968   59.0113 C.3     1  ZINC000194290865   -0.1600
     10 C10       -13.3559   -1.2308   58.9211 C.3     1  ZINC000194290865   -0.1200
     11 C11       -13.7770   -0.3171   57.7427 C.3     1  ZINC000194290865    0.0900
     12 N12       -12.8394   -0.7019   56.6626 N.am    1  ZINC000194290865   -0.6100
     13 C13       -13.1213   -0.8324   55.3512 C.2     1  ZINC000194290865    0.5800
     14 O14       -14.2492   -0.6256   54.9486 O.2     1  ZINC000194290865   -0.5000
     15 C15       -12.0573   -1.2276   54.4013 C.ar    1  ZINC000194290865    0.0100
     16 C16       -12.0411   -2.5098   53.8194 C.ar    1  ZINC000194290865   -0.2200
     17 C17       -11.0123   -2.8447   52.9222 C.ar    1  ZINC000194290865    0.3000
     18 N18       -10.0717   -1.9590   52.6317 N.ar    1  ZINC000194290865   -0.4700
     19 C19       -10.0611   -0.7537   53.1599 C.ar    1  ZINC000194290865    0.2100
     20 C20        -8.9596    0.2034   52.7835 C.3     1  ZINC000194290865   -0.1100
     21 C21       -11.0405   -0.3405   54.0485 C.ar    1  ZINC000194290865   -0.1800
     22 O22       -11.2385   -4.1127   52.5235 O.3     1  ZINC000194290865   -0.0800
     23 N23       -12.4044   -4.6028   53.1541 N.2     1  ZINC000194290865   -0.2600
     24 C24       -12.9042   -3.6857   53.9252 C.2     1  ZINC000194290865    0.1600
     25 C25       -14.1440   -3.8100   54.7727 C.3     1  ZINC000194290865   -0.0400
     26 C26       -15.3822   -3.5985   53.8992 C.3     1  ZINC000194290865   -0.1500
     27 C27       -14.1949   -5.2042   55.4007 C.3     1  ZINC000194290865   -0.1400
     28 C28       -11.5339   -0.9120   57.3158 C.3     1  ZINC000194290865    0.1200
     29 H29       -11.4855   -0.2513   63.6297 H       1  ZINC000194290865    0.0700
     30 H30        -9.8357   -0.8755   63.3910 H       1  ZINC000194290865    0.0700
     31 H31       -10.0825    0.7955   63.9526 H       1  ZINC000194290865    0.0800
     32 H32       -11.1398    1.3681   61.7841 H       1  ZINC000194290865    0.0700
     33 H33        -9.4900    0.7439   61.5454 H       1  ZINC000194290865    0.0700
     34 H34       -11.6141   -2.9824   60.0891 H       1  ZINC000194290865    0.0900
     35 H35       -12.9555   -3.6661   58.1188 H       1  ZINC000194290865    0.0500
     36 H36       -11.5517   -3.3777   57.0631 H       1  ZINC000194290865    0.0800
     37 H37       -11.4981   -4.6751   58.2807 H       1  ZINC000194290865    0.0600
     38 H38        -9.3663   -1.9953   59.7408 H       1  ZINC000194290865    0.0500
     39 H39        -9.4021   -3.6993   59.2279 H       1  ZINC000194290865    0.0600
     40 H40        -9.4557   -2.4020   58.0103 H       1  ZINC000194290865    0.0800
     41 H41       -13.7857   -2.2263   58.8104 H       1  ZINC000194290865    0.0900
     42 H42       -13.6444   -0.7885   59.8746 H       1  ZINC000194290865    0.0900
     43 H43       -14.8069   -0.5193   57.4482 H       1  ZINC000194290865    0.0900
     44 H44       -13.6505    0.7331   58.0059 H       1  ZINC000194290865    0.0900
     45 H45        -9.2632    0.7818   51.9109 H       1  ZINC000194290865    0.0900
     46 H46        -8.7642    0.8784   53.6168 H       1  ZINC000194290865    0.0900
     47 H47        -8.0546   -0.3577   52.5505 H       1  ZINC000194290865    0.0900
     48 H48       -11.0121    0.6536   54.4695 H       1  ZINC000194290865    0.1600
     49 H49       -14.1224   -3.0571   55.5607 H       1  ZINC000194290865    0.1100
     50 H50       -15.4039   -4.3513   53.1112 H       1  ZINC000194290865    0.0700
     51 H51       -16.2790   -3.6884   54.5122 H       1  ZINC000194290865    0.0700
     52 H52       -15.3460   -2.6052   53.4518 H       1  ZINC000194290865    0.0600
     53 H53       -13.3127   -5.3548   56.0230 H       1  ZINC000194290865    0.0600
     54 H54       -15.0916   -5.2940   56.0137 H       1  ZINC000194290865    0.0700
     55 H55       -14.2164   -5.9570   54.6128 H       1  ZINC000194290865    0.0600
     56 H56       -10.9441    0.0034   57.2697 H       1  ZINC000194290865    0.0800
     57 H57       -11.0000   -1.7259   56.8250 H       1  ZINC000194290865    0.1000
@<TRIPOS>BOND
     1     1     2    1
     2     1    29    1
     3     1    30    1
     4     1    31    1
     5     2     3    1
     6     2    32    1
     7     2    33    1
     8     3     4    1
     9     4     5    2
    10     4     6    1
    11     6    28    1
    12     6     7    1
    13     6    10    1
    14     7     8    1
    15     7     9    1
    16     7    34    1
    17     8    35    1
    18     8    36    1
    19     8    37    1
    20     9    38    1
    21     9    39    1
    22     9    40    1
    23    10    11    1
    24    10    41    1
    25    10    42    1
    26    11    12    1
    27    11    43    1
    28    11    44    1
    29    12    13   am
    30    12    28    1
    31    13    14    2
    32    13    15    1
    33    15    21   ar
    34    15    16   ar
    35    16    24    1
    36    16    17   ar
    37    17    18   ar
    38    17    22    1
    39    18    19   ar
    40    19    20    1
    41    19    21   ar
    42    20    45    1
    43    20    46    1
    44    20    47    1
    45    21    48    1
    46    22    23    1
    47    23    24    2
    48    24    25    1
    49    25    26    1
    50    25    27    1
    51    25    49    1
    52    26    50    1
    53    26    51    1
    54    26    52    1
    55    27    53    1
    56    27    54    1
    57    27    55    1
    58    28    56    1
    59    28    57    1
@<TRIPOS>SUBSTRUCTURE
     1 ZINC000194290865        1 TEMP              0 ****  ****    0 ROOT


##########                                Name:    ZINC000245764166
##########                DOCK_Rotatable_Bonds:                   8
##########                         Heavy_Atoms:                  26
##########                    Molecular_Weight:             359.512
##########                DOCK_Rotatable_Bonds:                   8
##########                       Formal_Charge:          -0.0100008
##########                     HBond_Acceptors:                   5
##########                        HBond_Donors:                   2
##########                         Heavy_Atoms:                  26
##########                          Grid_Score:          -32.063965
##########                     Grid_vdw_energy:          -31.455946
##########                      Grid_es_energy:           -0.608020
##########           Internal_energy_repulsive:           25.329180

@<TRIPOS>MOLECULE
ZINC000245764166
 59 61 1 0 0
SMALL
USER_CHARGES


@<TRIPOS>ATOM
      1 C1        -10.8547   -2.2740   51.7907 C.3     1  ZINC000245764166    0.0200
      2 N2        -11.6351   -1.2239   52.4587 N.3     1  ZINC000245764166   -0.5300
      3 C3        -13.0758   -1.4328   52.2615 C.3     1  ZINC000245764166    0.0600
      4 C4        -13.5074   -0.7749   50.9761 C.ar    1  ZINC000245764166   -0.0800
      5 C5        -13.7825    0.5796   50.9514 C.ar    1  ZINC000245764166   -0.1000
      6 C6        -14.1785    1.1830   49.7725 C.ar    1  ZINC000245764166   -0.1200
      7 C7        -14.2987    0.4321   48.6181 C.ar    1  ZINC000245764166   -0.1200
      8 C8        -14.0227   -0.9222   48.6426 C.ar    1  ZINC000245764166   -0.1200
      9 C9        -13.6227   -1.5248   49.8206 C.ar    1  ZINC000245764166   -0.1200
     10 C10       -11.3046   -1.1512   53.8882 C.3     1  ZINC000245764166    0.0500
     11 C11       -10.5359    0.1417   54.1687 C.3     1  ZINC000245764166    0.1900
     12 C12        -9.5538    0.4092   53.0265 C.3     1  ZINC000245764166   -0.1600
     13 C13       -11.5209    1.3072   54.2780 C.3     1  ZINC000245764166   -0.1500
     14 N14        -9.7970    0.0072   55.4265 N.am    1  ZINC000245764166   -0.7400
     15 C15       -10.4462   -0.3388   56.5559 C.2     1  ZINC000245764166    0.7000
     16 O16       -11.6454   -0.5379   56.5311 O.2     1  ZINC000245764166   -0.5800
     17 N17        -9.7660   -0.4640   57.7127 N.am    1  ZINC000245764166   -0.7500
     18 C18       -10.4721   -0.8384   58.9406 C.3     1  ZINC000245764166    0.1800
     19 H19       -11.3109   -1.4872   58.6884 H       1  ZINC000245764166    0.0900
     20 C20       -10.9988    0.4223   59.6215 C.3     1  ZINC000245764166   -0.1300
     21 C21       -11.7857    0.0108   60.8708 C.3     1  ZINC000245764166   -0.1100
     22 C22       -10.8234   -0.6721   61.8424 C.3     1  ZINC000245764166   -0.1100
     23 C23       -10.1823   -1.8892   61.2182 C.3     1  ZINC000245764166    0.0900
     24 H24        -9.4208   -2.2761   61.8953 H       1  ZINC000245764166    0.0600
     25 O25       -11.1219   -2.9332   60.9295 O.3     1  ZINC000245764166   -0.3600
     26 C26       -10.4510   -3.8402   60.0323 C.3     1  ZINC000245764166    0.0500
     27 C27        -9.3743   -3.0305   59.2817 C.3     1  ZINC000245764166   -0.1500
     28 C28        -9.5122   -1.5921   59.8636 C.3     1  ZINC000245764166   -0.1300
     29 H29        -8.5506   -1.0909   59.9749 H       1  ZINC000245764166    0.1000
     30 H30       -11.1063   -2.2948   50.7304 H       1  ZINC000245764166    0.0800
     31 H31        -9.7911   -2.0663   51.9078 H       1  ZINC000245764166    0.0700
     32 H32       -11.0875   -3.2402   52.2384 H       1  ZINC000245764166    0.0200
     33 H33       -13.2844   -2.5014   52.2105 H       1  ZINC000245764166    0.0400
     34 H34       -13.6240   -0.9949   53.0957 H       1  ZINC000245764166    0.1100
     35 H35       -13.6885    1.1662   51.8533 H       1  ZINC000245764166    0.1200
     36 H36       -14.3941    2.2411   49.7533 H       1  ZINC000245764166    0.1200
     37 H37       -14.6087    0.9034   47.6972 H       1  ZINC000245764166    0.1200
     38 H38       -14.1170   -1.5089   47.7408 H       1  ZINC000245764166    0.1200
     39 H39       -13.4070   -2.5829   49.8398 H       1  ZINC000245764166    0.1200
     40 H40       -12.2233   -1.1622   54.4747 H       1  ZINC000245764166    0.0400
     41 H41       -10.6881   -2.0072   54.1626 H       1  ZINC000245764166    0.1000
     42 H42       -10.1037    0.5092   52.0906 H       1  ZINC000245764166    0.0700
     43 H43        -9.0062    1.3302   53.2263 H       1  ZINC000245764166    0.0800
     44 H44        -8.8521   -0.4212   52.9486 H       1  ZINC000245764166    0.0500
     45 H45       -12.1408    1.1772   55.1652 H       1  ZINC000245764166    0.0600
     46 H46       -10.9686    2.2438   54.3548 H       1  ZINC000245764166    0.0800
     47 H47       -12.1552    1.3312   53.3919 H       1  ZINC000245764166    0.0600
     48 H48        -8.8404    0.1672   55.4466 H       1  ZINC000245764166    0.3900
     49 H49        -8.8092   -0.3064   57.7323 H       1  ZINC000245764166    0.3900
     50 H50       -10.1625    1.0593   59.9093 H       1  ZINC000245764166    0.0600
     51 H51       -11.6542    0.9610   58.9374 H       1  ZINC000245764166    0.0700
     52 H52       -12.2165    0.8948   61.3411 H       1  ZINC000245764166    0.0700
     53 H53       -12.5801   -0.6819   60.5929 H       1  ZINC000245764166    0.0700
     54 H54       -10.0441    0.0344   62.1283 H       1  ZINC000245764166    0.0800
     55 H55       -11.3724   -0.9758   62.7338 H       1  ZINC000245764166    0.0700
     56 H56        -9.9816   -4.6435   60.6002 H       1  ZINC000245764166    0.0600
     57 H57       -11.1657   -4.2548   59.3215 H       1  ZINC000245764166    0.0800
     58 H58        -8.3818   -3.4319   59.4866 H       1  ZINC000245764166    0.0800
     59 H59        -9.5739   -3.0302   58.2101 H       1  ZINC000245764166    0.0800
@<TRIPOS>BOND
     1     1     2    1
     2     1    30    1
     3     1    31    1
     4     1    32    1
     5     2     3    1
     6     2    10    1
     7     3     4    1
     8     3    33    1
     9     3    34    1
    10     4     9   ar
    11     4     5   ar
    12     5     6   ar
    13     5    35    1
    14     6     7   ar
    15     6    36    1
    16     7     8   ar
    17     7    37    1
    18     8     9   ar
    19     8    38    1
    20     9    39    1
    21    10    11    1
    22    10    40    1
    23    10    41    1
    24    11    12    1
    25    11    13    1
    26    11    14    1
    27    12    42    1
    28    12    43    1
    29    12    44    1
    30    13    45    1
    31    13    46    1
    32    13    47    1
    33    14    15   am
    34    14    48    1
    35    15    16    2
    36    15    17   am
    37    17    18    1
    38    17    49    1
    39    18    19    1
    40    18    28    1
    41    18    20    1
    42    20    21    1
    43    20    50    1
    44    20    51    1
    45    21    22    1
    46    21    52    1
    47    21    53    1
    48    22    23    1
    49    22    54    1
    50    22    55    1
    51    23    24    1
    52    23    28    1
    53    23    25    1
    54    25    26    1
    55    26    27    1
    56    26    56    1
    57    26    57    1
    58    27    28    1
    59    27    58    1
    60    27    59    1
    61    28    29    1
@<TRIPOS>SUBSTRUCTURE
     1 ZINC000245764166        1 TEMP              0 ****  ****    0 ROOT


##########                                Name:    ZINC000443933644
##########                DOCK_Rotatable_Bonds:                   8
##########                         Heavy_Atoms:                  27
##########                    Molecular_Weight:             402.438
##########                DOCK_Rotatable_Bonds:                   8
##########                       Formal_Charge:          0.00999922
##########                     HBond_Acceptors:                   9
##########                        HBond_Donors:                   2
##########                         Heavy_Atoms:                  27
##########                          Grid_Score:          -32.061028
##########                     Grid_vdw_energy:          -31.250576
##########                      Grid_es_energy:           -0.810453
##########           Internal_energy_repulsive:           26.465153

@<TRIPOS>MOLECULE
ZINC000443933644
 48 49 1 0 0
SMALL
USER_CHARGES


@<TRIPOS>ATOM
      1 C1        -15.0802   -1.0212   48.5924 C.3     1  ZINC000443933644   -0.1500
      2 C2        -14.4180   -1.6254   49.8323 C.3     1  ZINC000443933644   -0.1400
      3 C3        -14.6928   -0.7321   51.0436 C.3     1  ZINC000443933644   -0.1000
      4 H4        -15.7411   -0.4334   51.0445 H       1  ZINC000443933644    0.1000
      5 C5        -13.8076    0.5136   50.9699 C.3     1  ZINC000443933644   -0.1700
      6 C6        -14.3813   -1.5038   52.3275 C.3     1  ZINC000443933644    0.1200
      7 H7        -13.8192   -0.8646   53.0084 H       1  ZINC000443933644    0.1300
      8 N8        -13.5860   -2.6906   52.0031 N.am    1  ZINC000443933644   -1.1100
      9 S9        -11.9895   -2.7615   52.4374 S.o2    1  ZINC000443933644    2.6900
     10 O10       -11.5469   -4.0754   52.1255 O.2     1  ZINC000443933644   -0.9400
     11 O11       -11.3786   -1.5907   51.9131 O.2     1  ZINC000443933644   -0.9400
     12 C12       -11.9193   -2.6164   54.1921 C.ar    1  ZINC000443933644   -0.7000
     13 C13       -12.5644   -3.5659   55.0023 C.ar    1  ZINC000443933644    0.0500
     14 C14       -13.2726   -4.6422   54.4401 C.ar    1  ZINC000443933644   -0.1400
     15 C15       -13.8855   -5.5441   55.2545 C.ar    1  ZINC000443933644   -0.0800
     16 C16       -13.8223   -5.4174   56.6409 C.ar    1  ZINC000443933644   -0.1200
     17 C17       -13.1457   -4.3875   57.2201 C.ar    1  ZINC000443933644   -0.0900
     18 C18       -12.5007   -3.4381   56.4119 C.ar    1  ZINC000443933644   -0.0900
     19 C19       -11.7902   -2.3577   56.9764 C.ar    1  ZINC000443933644    0.2300
     20 N20       -11.7147   -2.2119   58.3629 N.am    1  ZINC000443933644   -0.6700
     21 C21       -10.6114   -2.6148   59.0238 C.2     1  ZINC000443933644    0.5100
     22 C22       -10.5300   -2.4575   60.5204 C.3     1  ZINC000443933644   -0.1700
     23 O23        -9.6840   -3.1040   58.4141 O.2     1  ZINC000443933644   -0.5100
     24 C24       -11.1711   -1.4477   56.1469 C.ar    1  ZINC000443933644   -0.1600
     25 C25       -11.2352   -1.5872   54.7638 C.ar    1  ZINC000443933644    0.0400
     26 C26       -15.6896   -1.9333   52.9944 C.3     1  ZINC000443933644    0.4300
     27 F27       -15.4053   -2.7259   54.1117 F       1  ZINC000443933644   -0.1700
     28 F28       -16.4025   -0.7988   53.3967 F       1  ZINC000443933644   -0.1600
     29 F29       -16.4574   -2.6682   52.0847 F       1  ZINC000443933644   -0.1700
     30 H30       -16.1557   -0.9487   48.7538 H       1  ZINC000443933644    0.0500
     31 H31       -14.6722   -0.0269   48.4106 H       1  ZINC000443933644    0.0600
     32 H32       -14.8844   -1.6576   47.7293 H       1  ZINC000443933644    0.0600
     33 H33       -14.8260   -2.6196   50.0140 H       1  ZINC000443933644    0.0700
     34 H34       -13.3425   -1.6979   49.6709 H       1  ZINC000443933644    0.0900
     35 H35       -14.1090    1.1237   50.1183 H       1  ZINC000443933644    0.0700
     36 H36       -13.9165    1.0917   51.8876 H       1  ZINC000443933644    0.0600
     37 H37       -12.7667    0.2132   50.8512 H       1  ZINC000443933644    0.0700
     38 H38       -13.9945   -3.4349   51.5340 H       1  ZINC000443933644    0.4300
     39 H39       -13.3304   -4.7527   53.3673 H       1  ZINC000443933644    0.1400
     40 H40       -14.4293   -6.3698   54.8200 H       1  ZINC000443933644    0.1300
     41 H41       -14.3174   -6.1466   57.2649 H       1  ZINC000443933644    0.1300
     42 H42       -13.1056   -4.3015   58.2958 H       1  ZINC000443933644    0.1300
     43 H43       -12.4565   -1.8208   58.8505 H       1  ZINC000443933644    0.4200
     44 H44       -11.4497   -2.0029   60.8884 H       1  ZINC000443933644    0.0800
     45 H45       -10.3982   -3.4361   60.9819 H       1  ZINC000443933644    0.1000
     46 H46        -9.6830   -1.8197   60.7730 H       1  ZINC000443933644    0.1000
     47 H47       -10.6263   -0.6194   56.5752 H       1  ZINC000443933644    0.1500
     48 H48       -10.7424   -0.8619   54.1334 H       1  ZINC000443933644    0.1500
@<TRIPOS>BOND
     1     1     2    1
     2     1    30    1
     3     1    31    1
     4     1    32    1
     5     2     3    1
     6     2    33    1
     7     2    34    1
     8     3     4    1
     9     3     5    1
    10     3     6    1
    11     5    35    1
    12     5    36    1
    13     5    37    1
    14     6     7    1
    15     6     8    1
    16     6    26    1
    17     8     9   am
    18     8    38    1
    19     9    10    2
    20     9    11    2
    21     9    12    1
    22    12    25   ar
    23    12    13   ar
    24    13    18   ar
    25    13    14   ar
    26    14    15   ar
    27    14    39    1
    28    15    16   ar
    29    15    40    1
    30    16    17   ar
    31    16    41    1
    32    17    18   ar
    33    17    42    1
    34    18    19   ar
    35    19    20    1
    36    19    24   ar
    37    20    21   am
    38    20    43    1
    39    21    22    1
    40    21    23    2
    41    22    44    1
    42    22    45    1
    43    22    46    1
    44    24    25   ar
    45    24    47    1
    46    25    48    1
    47    26    27    1
    48    26    28    1
    49    26    29    1
@<TRIPOS>SUBSTRUCTURE
     1 ZINC000443933644        1 TEMP              0 ****  ****    0 ROOT


##########                                Name:    ZINC000534890536
##########                DOCK_Rotatable_Bonds:                   6
##########                         Heavy_Atoms:                  30
##########                    Molecular_Weight:             411.476
##########                DOCK_Rotatable_Bonds:                   6
##########                       Formal_Charge:          0.00999957
##########                     HBond_Acceptors:                   7
##########                        HBond_Donors:                   1
##########                         Heavy_Atoms:                  30
##########                          Grid_Score:          -32.037350
##########                     Grid_vdw_energy:          -32.036285
##########                      Grid_es_energy:           -0.001065
##########           Internal_energy_repulsive:           14.676308

@<TRIPOS>MOLECULE
ZINC000534890536
 56 59 1 0 0
SMALL
USER_CHARGES


@<TRIPOS>ATOM
      1 C1         -2.1917    3.7983   53.1754 C.3     1  ZINC000534890536    0.0300
      2 O2         -2.4938    2.9597   52.0584 O.3     1  ZINC000534890536   -0.3200
      3 C3         -3.8020    2.6553   51.8514 C.ar    1  ZINC000534890536    0.1300
      4 C4         -4.7648    3.0741   52.7582 C.ar    1  ZINC000534890536   -0.2100
      5 C5         -6.0939    2.7638   52.5453 C.ar    1  ZINC000534890536   -0.0700
      6 C6         -6.4651    2.0361   51.4297 C.ar    1  ZINC000534890536   -0.1100
      7 C7         -7.9157    1.6985   51.2001 C.3     1  ZINC000534890536   -0.0600
      8 H8         -8.0430    1.1427   50.2713 H       1  ZINC000534890536    0.0900
      9 C9         -8.7925    2.9786   51.2070 C.3     1  ZINC000534890536   -0.1200
     10 C10       -10.1737    2.4491   51.6466 C.3     1  ZINC000534890536    0.1000
     11 N11        -9.9494    1.1819   52.3575 N.am    1  ZINC000534890536   -0.6400
     12 C12       -10.9096    0.3943   52.8812 C.2     1  ZINC000534890536    0.7300
     13 O13       -12.0786    0.7141   52.7833 O.2     1  ZINC000534890536   -0.5700
     14 N14       -10.5741   -0.7478   53.5132 N.am    1  ZINC000534890536   -0.7300
     15 C15       -11.6178   -1.6030   54.0839 C.3     1  ZINC000534890536    0.1600
     16 H16       -12.5968   -1.2243   53.7905 H       1  ZINC000534890536    0.1200
     17 C17       -11.4473   -3.0312   53.5605 C.3     1  ZINC000534890536   -0.1300
     18 C18       -12.3628   -3.9569   54.3709 C.3     1  ZINC000534890536   -0.1300
     19 C19       -11.8432   -4.0242   55.8075 C.3     1  ZINC000534890536    0.1100
     20 N20       -11.6333   -2.6828   56.3374 N.am    1  ZINC000534890536   -0.5600
     21 C21       -11.5571   -2.5307   57.7275 C.ar    1  ZINC000534890536    0.1000
     22 C22       -10.3205   -2.4434   58.3509 C.ar    1  ZINC000534890536   -0.0800
     23 C23       -10.2483   -2.2929   59.7227 C.ar    1  ZINC000534890536   -0.1200
     24 C24       -11.4061   -2.2297   60.4753 C.ar    1  ZINC000534890536   -0.0800
     25 C25       -12.6412   -2.3162   59.8587 C.ar    1  ZINC000534890536   -0.1500
     26 C26       -12.7210   -2.4611   58.4860 C.ar    1  ZINC000534890536    0.1100
     27 F27       -13.9272   -2.5453   57.8834 F       1  ZINC000534890536   -0.1300
     28 C28       -11.5074   -1.5929   55.5815 C.2     1  ZINC000534890536    0.5000
     29 O29       -11.2943   -0.5335   56.1326 O.2     1  ZINC000534890536   -0.5100
     30 C30        -8.5000    0.9139   52.4013 C.3     1  ZINC000534890536    0.1300
     31 C31        -5.5074    1.6179   50.5242 C.ar    1  ZINC000534890536   -0.0700
     32 C32        -4.1775    1.9301   50.7299 C.ar    1  ZINC000534890536   -0.1500
     33 H33        -2.7003    4.7554   53.0592 H       1  ZINC000534890536    0.0600
     34 H34        -2.5292    3.3167   54.0932 H       1  ZINC000534890536    0.0600
     35 H35        -1.1154    3.9626   53.2258 H       1  ZINC000534890536    0.1000
     36 H36        -4.4754    3.6420   53.6300 H       1  ZINC000534890536    0.1300
     37 H37        -6.8439    3.0897   53.2508 H       1  ZINC000534890536    0.1300
     38 H38        -8.4108    3.7036   51.9258 H       1  ZINC000534890536    0.0800
     39 H39        -8.8462    3.4145   50.2093 H       1  ZINC000534890536    0.0900
     40 H40       -10.6516    3.1679   52.3121 H       1  ZINC000534890536    0.0700
     41 H41       -10.8006    2.2773   50.7716 H       1  ZINC000534890536    0.0700
     42 H42        -9.6416   -1.0037   53.5902 H       1  ZINC000534890536    0.4000
     43 H43       -11.7243   -3.0716   52.5071 H       1  ZINC000534890536    0.0900
     44 H44       -10.4101   -3.3446   53.6799 H       1  ZINC000534890536    0.0800
     45 H45       -13.3784   -3.5612   54.3674 H       1  ZINC000534890536    0.0800
     46 H46       -12.3551   -4.9546   53.9320 H       1  ZINC000534890536    0.1000
     47 H47       -12.5696   -4.5476   56.4293 H       1  ZINC000534890536    0.0800
     48 H48       -10.8998   -4.5699   55.8242 H       1  ZINC000534890536    0.0700
     49 H49        -9.4149   -2.4933   57.7645 H       1  ZINC000534890536    0.1300
     50 H50        -9.2858   -2.2250   60.2077 H       1  ZINC000534890536    0.1300
     51 H51       -11.3462   -2.1127   61.5472 H       1  ZINC000534890536    0.1400
     52 H52       -13.5439   -2.2665   60.4495 H       1  ZINC000534890536    0.1400
     53 H53        -8.3079   -0.1531   52.2883 H       1  ZINC000534890536    0.0800
     54 H54        -8.0746    1.2799   53.3358 H       1  ZINC000534890536    0.0700
     55 H55        -5.7999    1.0499   49.6535 H       1  ZINC000534890536    0.1300
     56 H56        -3.4300    1.6033   50.0224 H       1  ZINC000534890536    0.1300
@<TRIPOS>BOND
     1     1     2    1
     2     1    33    1
     3     1    34    1
     4     1    35    1
     5     2     3    1
     6     3    32   ar
     7     3     4   ar
     8     4     5   ar
     9     4    36    1
    10     5     6   ar
    11     5    37    1
    12     6     7    1
    13     6    31   ar
    14     7     8    1
    15     7    30    1
    16     7     9    1
    17     9    10    1
    18     9    38    1
    19     9    39    1
    20    10    11    1
    21    10    40    1
    22    10    41    1
    23    11    12   am
    24    11    30    1
    25    12    13    2
    26    12    14   am
    27    14    15    1
    28    14    42    1
    29    15    16    1
    30    15    28    1
    31    15    17    1
    32    17    18    1
    33    17    43    1
    34    17    44    1
    35    18    19    1
    36    18    45    1
    37    18    46    1
    38    19    20    1
    39    19    47    1
    40    19    48    1
    41    20    21    1
    42    20    28   am
    43    21    26   ar
    44    21    22   ar
    45    22    23   ar
    46    22    49    1
    47    23    24   ar
    48    23    50    1
    49    24    25   ar
    50    24    51    1
    51    25    26   ar
    52    25    52    1
    53    26    27    1
    54    28    29    2
    55    30    53    1
    56    30    54    1
    57    31    32   ar
    58    31    55    1
    59    32    56    1
@<TRIPOS>SUBSTRUCTURE
     1 ZINC000534890536        1 TEMP              0 ****  ****    0 ROOT


##########                                Name:    ZINC000364058410
##########                DOCK_Rotatable_Bonds:                   5
##########                         Heavy_Atoms:                  25
##########                    Molecular_Weight:             358.464
##########                DOCK_Rotatable_Bonds:                   5
##########                       Formal_Charge:           0.0100002
##########                     HBond_Acceptors:                   7
##########                        HBond_Donors:                   0
##########                         Heavy_Atoms:                  25
##########                          Grid_Score:          -31.998564
##########                     Grid_vdw_energy:          -30.825491
##########                      Grid_es_energy:           -1.173072
##########           Internal_energy_repulsive:           60.759590

@<TRIPOS>MOLECULE
ZINC000364058410
 47 50 1 0 0
SMALL
USER_CHARGES


@<TRIPOS>ATOM
      1 C1        -16.0027   -2.1335   48.3043 C.3     1  ZINC000364058410   -0.0700
      2 C2        -15.3462   -2.1287   49.6608 C.2     1  ZINC000364058410   -0.2500
      3 C3        -14.0371   -1.8947   49.9108 C.2     1  ZINC000364058410    0.0800
      4 N4        -13.8514   -1.9802   51.2448 N.pl3   1  ZINC000364058410   -0.3600
      5 C5        -12.5818   -1.7953   51.9518 C.3     1  ZINC000364058410    0.1300
      6 C6        -12.7470   -1.4626   53.4458 C.3     1  ZINC000364058410    0.1100
      7 N7        -12.6881   -2.9195   53.6738 N.am    1  ZINC000364058410   -0.6500
      8 C8        -13.1403   -3.7435   54.6397 C.2     1  ZINC000364058410    0.5600
      9 O9        -12.9374   -4.9368   54.5627 O.2     1  ZINC000364058410   -0.5000
     10 C10       -13.8980   -3.1823   55.8151 C.3     1  ZINC000364058410    0.1400
     11 H11       -14.3006   -2.2028   55.5565 H       1  ZINC000364058410    0.0900
     12 C12       -15.0454   -4.1275   56.1853 C.3     1  ZINC000364058410   -0.1200
     13 C13       -15.7234   -3.6249   57.4620 C.3     1  ZINC000364058410   -0.1200
     14 C14       -14.7121   -3.6197   58.6106 C.3     1  ZINC000364058410   -0.1400
     15 C15       -13.5611   -2.6687   58.2679 C.3     1  ZINC000364058410    0.1000
     16 N16       -12.9957   -3.0551   56.9676 N.am    1  ZINC000364058410   -0.6000
     17 C17       -11.6756   -3.2934   56.8364 C.2     1  ZINC000364058410    0.5900
     18 O18       -11.2197   -3.6128   55.7541 O.2     1  ZINC000364058410   -0.4900
     19 C19       -10.7891   -3.1678   57.9970 C.2     1  ZINC000364058410   -0.2600
     20 C20       -10.3220   -4.2054   58.7536 C.2     1  ZINC000364058410   -0.0600
     21 C21        -9.5061   -3.8026   59.7841 C.2     1  ZINC000364058410   -0.1400
     22 C22        -9.3105   -2.4815   59.8702 C.2     1  ZINC000364058410   -0.2400
     23 S23       -10.1504   -1.6585   58.6340 S.3     1  ZINC000364058410    0.2100
     24 C24       -11.9350   -3.1118   52.4192 C.3     1  ZINC000364058410    0.0900
     25 N25       -15.0873   -2.2766   51.8340 N.2     1  ZINC000364058410   -0.3000
     26 C26       -15.9835   -2.3594   50.8843 C.2     1  ZINC000364058410    0.0500
     27 H27       -16.3536   -1.1293   48.0669 H       1  ZINC000364058410    0.0600
     28 H28       -15.2812   -2.4535   47.5526 H       1  ZINC000364058410    0.0600
     29 H29       -16.8483   -2.8214   48.3124 H       1  ZINC000364058410    0.0600
     30 H30       -13.2770   -1.6783   49.1747 H       1  ZINC000364058410    0.1700
     31 H31       -11.8954   -1.1316   51.4260 H       1  ZINC000364058410    0.1300
     32 H32       -11.9041   -0.9171   53.8703 H       1  ZINC000364058410    0.1100
     33 H33       -13.7110   -1.0179   53.6929 H       1  ZINC000364058410    0.0900
     34 H34       -15.7720   -4.1531   55.3733 H       1  ZINC000364058410    0.0800
     35 H35       -14.6511   -5.1298   56.3532 H       1  ZINC000364058410    0.0800
     36 H36       -16.0956   -2.6131   57.3012 H       1  ZINC000364058410    0.0700
     37 H37       -16.5557   -4.2820   57.7139 H       1  ZINC000364058410    0.0800
     38 H38       -15.2016   -3.2838   59.5248 H       1  ZINC000364058410    0.0800
     39 H39       -14.3211   -4.6267   58.7556 H       1  ZINC000364058410    0.0700
     40 H40       -13.9359   -1.6467   58.2117 H       1  ZINC000364058410    0.0800
     41 H41       -12.7907   -2.7358   59.0360 H       1  ZINC000364058410    0.0900
     42 H42       -10.5695   -5.2389   58.5614 H       1  ZINC000364058410    0.1500
     43 H43        -9.0562   -4.5012   60.4740 H       1  ZINC000364058410    0.1500
     44 H44        -8.6992   -2.0009   60.6197 H       1  ZINC000364058410    0.1700
     45 H45       -12.2508   -3.9839   51.8465 H       1  ZINC000364058410    0.0900
     46 H46       -10.8537   -3.0508   52.5421 H       1  ZINC000364058410    0.1100
     47 H47       -17.0327   -2.5760   51.0209 H       1  ZINC000364058410    0.1800
@<TRIPOS>BOND
     1     1     2    1
     2     1    27    1
     3     1    28    1
     4     1    29    1
     5     2    26    1
     6     2     3    2
     7     3     4    1
     8     3    30    1
     9     4     5    1
    10     4    25    1
    11     5    24    1
    12     5     6    1
    13     5    31    1
    14     6     7    1
    15     6    32    1
    16     6    33    1
    17     7     8   am
    18     7    24    1
    19     8     9    2
    20     8    10    1
    21    10    11    1
    22    10    16    1
    23    10    12    1
    24    12    13    1
    25    12    34    1
    26    12    35    1
    27    13    14    1
    28    13    36    1
    29    13    37    1
    30    14    15    1
    31    14    38    1
    32    14    39    1
    33    15    16    1
    34    15    40    1
    35    15    41    1
    36    16    17   am
    37    17    18    2
    38    17    19    1
    39    19    23    1
    40    19    20    2
    41    20    21    1
    42    20    42    1
    43    21    22    2
    44    21    43    1
    45    22    23    1
    46    22    44    1
    47    24    45    1
    48    24    46    1
    49    25    26    2
    50    26    47    1
@<TRIPOS>SUBSTRUCTURE
     1 ZINC000364058410        1 TEMP              0 ****  ****    0 ROOT


##########                                Name:    ZINC000949401225
##########                DOCK_Rotatable_Bonds:                   7
##########                         Heavy_Atoms:                  24
##########                    Molecular_Weight:             332.403
##########                DOCK_Rotatable_Bonds:                   7
##########                       Formal_Charge:                0.03
##########                     HBond_Acceptors:                   7
##########                        HBond_Donors:                   1
##########                         Heavy_Atoms:                  24
##########                          Grid_Score:          -31.998037
##########                     Grid_vdw_energy:          -31.567064
##########                      Grid_es_energy:           -0.430973
##########           Internal_energy_repulsive:           12.331058

@<TRIPOS>MOLECULE
ZINC000949401225
 48 50 1 0 0
SMALL
USER_CHARGES


@<TRIPOS>ATOM
      1 C1        -10.8114    2.3794   52.0900 C.3     1  ZINC000949401225    0.0700
      2 N2        -10.4630    0.9582   52.1592 N.pl3   1  ZINC000949401225   -0.4500
      3 C3         -9.2280    0.4441   51.8902 C.2     1  ZINC000949401225   -0.0100
      4 C4         -9.2678   -0.8904   52.0524 C.2     1  ZINC000949401225   -0.1700
      5 C5        -10.6406   -1.2163   52.4535 C.2     1  ZINC000949401225   -0.2400
      6 C6        -11.1826   -2.5533   52.7492 C.2     1  ZINC000949401225    0.5900
      7 O7        -10.5550   -3.5468   52.4358 O.2     1  ZINC000949401225   -0.5500
      8 N8        -12.3741   -2.6758   53.3670 N.am    1  ZINC000949401225   -0.7300
      9 C9        -12.9141   -4.0058   53.6595 C.3     1  ZINC000949401225    0.1200
     10 C10       -13.7784   -3.9395   54.9203 C.3     1  ZINC000949401225    0.1200
     11 H11       -14.5282   -3.1496   54.8759 H       1  ZINC000949401225    0.1000
     12 C12       -14.3487   -5.3005   55.3428 C.3     1  ZINC000949401225   -0.1500
     13 C13       -14.0408   -4.7898   56.7572 C.3     1  ZINC000949401225    0.1000
     14 N14       -12.9974   -3.9363   56.1664 N.am    1  ZINC000949401225   -0.6400
     15 C15       -11.8366   -3.3932   56.5836 C.2     1  ZINC000949401225    0.5500
     16 O16       -11.1799   -2.7102   55.8264 O.2     1  ZINC000949401225   -0.5200
     17 C17       -11.3546   -3.6345   57.9909 C.3     1  ZINC000949401225   -0.1400
     18 C18       -10.6399   -2.3839   58.5066 C.3     1  ZINC000949401225    0.1500
     19 H19        -9.8034   -2.1322   57.8545 H       1  ZINC000949401225    0.0900
     20 C20       -11.6281   -1.1994   58.5897 C.3     1  ZINC000949401225   -0.1200
     21 C21       -11.1277   -0.4593   59.8518 C.3     1  ZINC000949401225   -0.1600
     22 C22       -10.4250   -1.5307   60.6561 C.2     1  ZINC000949401225    0.5200
     23 O23       -10.1351   -1.4400   61.8302 O.2     1  ZINC000949401225   -0.5300
     24 N24       -10.1670   -2.5988   59.8793 N.am    1  ZINC000949401225   -0.6200
     25 C25        -9.5028   -3.8187   60.3452 C.3     1  ZINC000949401225    0.0900
     26 C26       -11.3143   -0.0270   52.5030 C.2     1  ZINC000949401225    0.0800
     27 H27       -10.6308    2.8453   53.0587 H       1  ZINC000949401225    0.0800
     28 H28       -10.1982    2.8673   51.3323 H       1  ZINC000949401225    0.0900
     29 H29       -11.8642    2.4831   51.8275 H       1  ZINC000949401225    0.0900
     30 H30        -8.3603    1.0155   51.5951 H       1  ZINC000949401225    0.1700
     31 H31        -8.4516   -1.5840   51.9145 H       1  ZINC000949401225    0.1500
     32 H32       -12.8741   -1.8835   53.6179 H       1  ZINC000949401225    0.4000
     33 H33       -13.5215   -4.3441   52.8200 H       1  ZINC000949401225    0.0700
     34 H34       -12.0927   -4.7047   53.8185 H       1  ZINC000949401225    0.0900
     35 H35       -15.4112   -5.4243   55.1338 H       1  ZINC000949401225    0.1000
     36 H36       -13.7443   -6.1535   55.0342 H       1  ZINC000949401225    0.1000
     37 H37       -14.8603   -4.2260   57.2031 H       1  ZINC000949401225    0.0900
     38 H38       -13.6481   -5.5600   57.4210 H       1  ZINC000949401225    0.0800
     39 H39       -12.2063   -3.8573   58.6335 H       1  ZINC000949401225    0.1000
     40 H40       -10.6633   -4.4772   57.9986 H       1  ZINC000949401225    0.1000
     41 H41       -11.5498   -0.5636   57.7079 H       1  ZINC000949401225    0.1000
     42 H42       -12.6502   -1.5530   58.7244 H       1  ZINC000949401225    0.0800
     43 H43       -10.4296    0.3320   59.5784 H       1  ZINC000949401225    0.1100
     44 H44       -11.9681   -0.0507   60.4129 H       1  ZINC000949401225    0.1000
     45 H45        -9.3345   -3.7528   61.4201 H       1  ZINC000949401225    0.0800
     46 H46       -10.1333   -4.6811   60.1283 H       1  ZINC000949401225    0.0600
     47 H47        -8.5467   -3.9298   59.8338 H       1  ZINC000949401225    0.0600
     48 H48       -12.3539    0.0998   52.7665 H       1  ZINC000949401225    0.1800
@<TRIPOS>BOND
     1     1     2    1
     2     1    27    1
     3     1    28    1
     4     1    29    1
     5     2    26    1
     6     2     3    1
     7     3     4    2
     8     3    30    1
     9     4     5    1
    10     4    31    1
    11     5     6    1
    12     5    26    2
    13     6     7    2
    14     6     8   am
    15     8     9    1
    16     8    32    1
    17     9    10    1
    18     9    33    1
    19     9    34    1
    20    10    11    1
    21    10    14    1
    22    10    12    1
    23    12    13    1
    24    12    35    1
    25    12    36    1
    26    13    14    1
    27    13    37    1
    28    13    38    1
    29    14    15   am
    30    15    16    2
    31    15    17    1
    32    17    18    1
    33    17    39    1
    34    17    40    1
    35    18    19    1
    36    18    24    1
    37    18    20    1
    38    20    21    1
    39    20    41    1
    40    20    42    1
    41    21    22    1
    42    21    43    1
    43    21    44    1
    44    22    23    2
    45    22    24   am
    46    24    25    1
    47    25    45    1
    48    25    46    1
    49    25    47    1
    50    26    48    1
@<TRIPOS>SUBSTRUCTURE
     1 ZINC000949401225        1 TEMP              0 ****  ****    0 ROOT


##########                                Name:    ZINC000350493047
##########                DOCK_Rotatable_Bonds:                   7
##########                         Heavy_Atoms:                  24
##########                    Molecular_Weight:             330.387
##########                DOCK_Rotatable_Bonds:                   7
##########                       Formal_Charge:          -0.0300002
##########                     HBond_Acceptors:                   7
##########                        HBond_Donors:                   3
##########                         Heavy_Atoms:                  24
##########                          Grid_Score:          -31.987675
##########                     Grid_vdw_energy:          -32.312130
##########                      Grid_es_energy:            0.324456
##########           Internal_energy_repulsive:            8.537572

@<TRIPOS>MOLECULE
ZINC000350493047
 46 48 1 0 0
SMALL
USER_CHARGES


@<TRIPOS>ATOM
      1 C1         -8.5294    0.4336   64.5495 C.3     1  <0>        -0.1600
      2 C2         -9.7544    0.5151   63.6364 C.3     1  <0>         0.2600
      3 H3         -9.7294    1.4506   63.0776 H       1  <0>         0.1200
      4 N4        -10.9728    0.4636   64.4482 N.am    1  <0>        -0.7400
      5 C5        -12.0813    1.1135   64.0419 C.2     1  <0>         0.7100
      6 N6        -13.2028    1.0649   64.7880 N.am    1  <0>        -0.8600
      7 O7        -12.0698    1.7440   63.0023 O.2     1  <0>        -0.5900
      8 C8         -9.7422   -0.6451   62.6747 C.2     1  <0>         0.1700
      9 N9         -8.9057   -1.6406   62.6834 N.2     1  <0>        -0.3800
     10 O10        -9.1560   -2.4136   61.7828 O.3     1  <0>         0.0900
     11 C11       -10.2147   -1.9700   61.0871 C.2     1  <0>         0.2400
     12 C12       -10.8357   -2.6201   59.9158 C.ar    1  <0>        -0.0800
     13 C13       -11.8971   -2.0005   59.2519 C.ar    1  <0>        -0.0200
     14 C14       -12.4739   -2.6102   58.1595 C.ar    1  <0>        -0.2200
     15 C15       -12.0013   -3.8401   57.7180 C.ar    1  <0>         0.1700
     16 O16       -12.5726   -4.4379   56.6412 O.3     1  <0>        -0.3000
     17 C17       -12.7733   -3.6289   55.4804 C.3     1  <0>         0.0800
     18 C18       -11.4188   -3.2877   54.8562 C.3     1  <0>        -0.1500
     19 C19       -11.6337   -2.4216   53.6134 C.3     1  <0>        -0.1200
     20 C20       -12.4844   -3.1878   52.5986 C.3     1  <0>        -0.1300
     21 C21       -13.8390   -3.5291   53.2228 C.3     1  <0>        -0.1200
     22 C22       -13.6241   -4.3952   54.4656 C.3     1  <0>        -0.1200
     23 C23       -10.9454   -4.4594   58.3753 C.ar    1  <0>        -0.1600
     24 C24       -10.3594   -3.8535   59.4649 C.ar    1  <0>        -0.0300
     25 N25       -10.5962   -0.8403   61.6580 N.2     1  <0>        -0.4700
     26 H26        -8.5544   -0.5019   65.1083 H       1  <0>         0.0600
     27 H27        -7.6229    0.4719   63.9455 H       1  <0>         0.0700
     28 H28        -8.5384    1.2727   65.2451 H       1  <0>         0.0800
     29 H29       -10.9817   -0.0384   65.2782 H       1  <0>         0.4000
     30 H30       -14.0008    1.5317   64.4948 H       1  <0>         0.4000
     31 H31       -13.2118    0.5630   65.6179 H       1  <0>         0.4200
     32 H32       -12.2655   -1.0450   59.5949 H       1  <0>         0.1400
     33 H33       -13.2946   -2.1319   57.6457 H       1  <0>         0.1400
     34 H34       -13.2854   -2.7090   55.7628 H       1  <0>         0.0800
     35 H35       -10.8127   -2.7418   55.5793 H       1  <0>         0.0700
     36 H36       -10.9068   -4.2077   54.5738 H       1  <0>         0.0800
     37 H37       -12.1457   -1.5016   53.8958 H       1  <0>         0.0600
     38 H38       -10.6687   -2.1784   53.1687 H       1  <0>         0.0700
     39 H39       -12.6375   -2.5707   51.7132 H       1  <0>         0.0700
     40 H40       -11.9724   -4.1077   52.3162 H       1  <0>         0.0700
     41 H41       -14.3509   -2.6091   53.5052 H       1  <0>         0.0700
     42 H42       -14.4450   -4.0750   52.4998 H       1  <0>         0.0700
     43 H43       -13.1121   -5.3152   54.1832 H       1  <0>         0.0800
     44 H44       -14.5891   -4.6383   54.9103 H       1  <0>         0.0700
     45 H45       -10.5807   -5.4151   58.0288 H       1  <0>         0.1400
     46 H46        -9.5384   -4.3353   59.9751 H       1  <0>         0.1400
@<TRIPOS>BOND
     1     1     2    1
     2     1    26    1
     3     1    27    1
     4     1    28    1
     5     2     3    1
     6     2     4    1
     7     2     8    1
     8     4     5   am
     9     4    29    1
    10     5     6   am
    11     5     7    2
    12     6    30    1
    13     6    31    1
    14     8    25    1
    15     8     9    2
    16     9    10    1
    17    10    11    1
    18    11    12    1
    19    11    25    2
    20    12    24   ar
    21    12    13   ar
    22    13    14   ar
    23    13    32    1
    24    14    15   ar
    25    14    33    1
    26    15    16    1
    27    15    23   ar
    28    16    17    1
    29    17    22    1
    30    17    18    1
    31    17    34    1
    32    18    19    1
    33    18    35    1
    34    18    36    1
    35    19    20    1
    36    19    37    1
    37    19    38    1
    38    20    21    1
    39    20    39    1
    40    20    40    1
    41    21    22    1
    42    21    41    1
    43    21    42    1
    44    22    43    1
    45    22    44    1
    46    23    24   ar
    47    23    45    1
    48    24    46    1
@<TRIPOS>SUBSTRUCTURE
     1 <0>         1 TEMP              0 ****  ****    0 ROOT


##########                                Name:    ZINC000632456679
##########                DOCK_Rotatable_Bonds:                   6
##########                         Heavy_Atoms:                  24
##########                    Molecular_Weight:              374.82
##########                DOCK_Rotatable_Bonds:                   6
##########                       Formal_Charge:          -0.0299999
##########                     HBond_Acceptors:                   9
##########                        HBond_Donors:                   1
##########                         Heavy_Atoms:                  24
##########                          Grid_Score:          -31.983913
##########                     Grid_vdw_energy:          -31.816727
##########                      Grid_es_energy:           -0.167187
##########           Internal_energy_repulsive:           31.235302

@<TRIPOS>MOLECULE
ZINC000632456679
 40 41 1 0 0
SMALL
USER_CHARGES


@<TRIPOS>ATOM
      1 C1        -15.1328   -3.5481   56.2889 C.3     1  ZINC000632456679   -0.1600
      2 C2        -13.7842   -4.2611   56.4075 C.3     1  ZINC000632456679    0.1900
      3 C3        -14.0124   -5.7215   56.8026 C.3     1  ZINC000632456679   -0.2000
      4 C4        -13.0574   -4.2042   55.0624 C.3     1  ZINC000632456679   -0.6300
      5 S5        -12.9053   -2.4768   54.5300 S.o2    1  ZINC000632456679    2.4100
      6 C6        -11.5366   -2.5697   53.3430 C.3     1  ZINC000632456679   -0.6600
      7 O7        -14.0873   -2.1130   53.8303 O.2     1  ZINC000632456679   -0.9300
      8 O8        -12.4885   -1.6955   55.6413 O.2     1  ZINC000632456679   -0.9300
      9 N9        -12.9706   -3.5998   57.4307 N.am    1  ZINC000632456679   -0.7200
     10 C10       -11.7194   -4.0335   57.6810 C.2     1  ZINC000632456679    0.6200
     11 O11       -11.2664   -4.9747   57.0587 O.2     1  ZINC000632456679   -0.5000
     12 C12       -10.8994   -3.3664   58.7101 C.2     1  ZINC000632456679   -0.0900
     13 C13       -11.2993   -2.3737   59.5592 C.2     1  ZINC000632456679   -0.1300
     14 C14       -10.1368   -2.0987   60.3308 C.2     1  ZINC000632456679    0.0400
     15 C15       -10.0060   -1.0949   61.4159 C.ar    1  ZINC000632456679   -0.0500
     16 C16        -9.2140   -1.3678   62.5290 C.ar    1  ZINC000632456679   -0.0600
     17 C17        -9.0952   -0.4312   63.5359 C.ar    1  ZINC000632456679   -0.1100
     18 C18        -9.7608    0.7778   63.4432 C.ar    1  ZINC000632456679   -0.0700
     19 C19       -10.5495    1.0569   62.3411 C.ar    1  ZINC000632456679   -0.0800
     20 Cl20      -11.3815    2.5766   62.2327 Cl      1  ZINC000632456679   -0.0400
     21 C21       -10.6711    0.1281   61.3226 C.ar    1  ZINC000632456679    0.1400
     22 F22       -11.4408    0.4001   60.2461 F       1  ZINC000632456679   -0.1100
     23 N23        -9.2052   -2.9083   59.8934 N.2     1  ZINC000632456679   -0.3200
     24 O24        -9.6097   -3.6191   59.0033 O.3     1  ZINC000632456679    0.1400
     25 H25       -15.6507   -3.5887   57.2472 H       1  ZINC000632456679    0.0900
     26 H26       -14.9702   -2.5078   56.0074 H       1  ZINC000632456679    0.0600
     27 H27       -15.7382   -4.0402   55.5276 H       1  ZINC000632456679    0.0700
     28 H28       -14.6178   -6.2135   56.0414 H       1  ZINC000632456679    0.0800
     29 H29       -13.0517   -6.2294   56.8870 H       1  ZINC000632456679    0.0800
     30 H30       -14.5303   -5.7620   57.7609 H       1  ZINC000632456679    0.0900
     31 H31       -12.0642   -4.6409   55.1673 H       1  ZINC000632456679    0.1600
     32 H32       -13.6241   -4.7649   54.3191 H       1  ZINC000632456679    0.1400
     33 H33       -11.8051   -3.2455   52.5310 H       1  ZINC000632456679    0.1300
     34 H34       -11.3381   -1.5770   52.9390 H       1  ZINC000632456679    0.1300
     35 H35       -10.6442   -2.9424   53.8458 H       1  ZINC000632456679    0.1300
     36 H36       -13.3325   -2.8497   57.9280 H       1  ZINC000632456679    0.4200
     37 H37       -12.2708   -1.9067   59.6279 H       1  ZINC000632456679    0.1900
     38 H38        -8.6937   -2.3112   62.6042 H       1  ZINC000632456679    0.1500
     39 H39        -8.4810   -0.6431   64.3986 H       1  ZINC000632456679    0.1500
     40 H40        -9.6648    1.5066   64.2345 H       1  ZINC000632456679    0.1500
@<TRIPOS>BOND
     1     1     2    1
     2     1    25    1
     3     1    26    1
     4     1    27    1
     5     2     3    1
     6     2     4    1
     7     2     9    1
     8     3    28    1
     9     3    29    1
    10     3    30    1
    11     4     5    1
    12     4    31    1
    13     4    32    1
    14     5     6    1
    15     5     7    2
    16     5     8    2
    17     6    33    1
    18     6    34    1
    19     6    35    1
    20     9    10   am
    21     9    36    1
    22    10    11    2
    23    10    12    1
    24    12    24    1
    25    12    13    2
    26    13    14    1
    27    13    37    1
    28    14    15    1
    29    14    23    2
    30    15    21   ar
    31    15    16   ar
    32    16    17   ar
    33    16    38    1
    34    17    18   ar
    35    17    39    1
    36    18    19   ar
    37    18    40    1
    38    19    20    1
    39    19    21   ar
    40    21    22    1
    41    23    24    1
@<TRIPOS>SUBSTRUCTURE
     1 ZINC000632456679        1 TEMP              0 ****  ****    0 ROOT


##########                                Name:    ZINC000191003171
##########                DOCK_Rotatable_Bonds:                   6
##########                         Heavy_Atoms:                  26
##########                    Molecular_Weight:             389.414
##########                DOCK_Rotatable_Bonds:                   6
##########                       Formal_Charge:          -0.0200002
##########                     HBond_Acceptors:                   8
##########                        HBond_Donors:                   1
##########                         Heavy_Atoms:                  26
##########                          Grid_Score:          -31.975357
##########                     Grid_vdw_energy:          -32.724762
##########                      Grid_es_energy:            0.749404
##########           Internal_energy_repulsive:           18.331074

@<TRIPOS>MOLECULE
ZINC000191003171
 45 46 1 0 0
SMALL
USER_CHARGES


@<TRIPOS>ATOM
      1 C1        -10.8895   -2.4082   53.0534 C.3     1  ZINC000191003171   -0.1200
      2 C2        -12.3090   -2.4649   52.5504 C.ar    1  ZINC000191003171   -0.0800
      3 C3        -12.7172   -1.6186   51.5369 C.ar    1  ZINC000191003171   -0.0700
      4 C4        -14.0196   -1.6705   51.0754 C.ar    1  ZINC000191003171   -0.1800
      5 C5        -14.4648   -0.7475   49.9706 C.3     1  ZINC000191003171    0.5100
      6 F6        -14.2346   -1.3570   48.7325 F       1  ZINC000191003171   -0.1800
      7 F7        -15.8303   -0.4772   50.1107 F       1  ZINC000191003171   -0.1800
      8 F8        -13.7428    0.4487   50.0429 F       1  ZINC000191003171   -0.1800
      9 C9        -14.9129   -2.5693   51.6272 C.ar    1  ZINC000191003171   -0.0800
     10 C10       -14.5044   -3.4161   52.6408 C.ar    1  ZINC000191003171   -0.1000
     11 C11       -13.2013   -3.3672   53.0991 C.ar    1  ZINC000191003171   -0.0500
     12 C12       -12.7560   -4.2903   54.2040 C.3     1  ZINC000191003171    0.0900
     13 N13       -13.9275   -4.7429   54.9659 N.3     1  ZINC000191003171   -0.6800
     14 C14       -13.5367   -5.6878   56.0206 C.3     1  ZINC000191003171    0.1200
     15 H15       -12.9597   -6.5025   55.5830 H       1  ZINC000191003171    0.0600
     16 C16       -14.7914   -6.2534   56.6892 C.3     1  ZINC000191003171   -0.1400
     17 C17       -12.6979   -4.9740   57.0490 C.ar    1  ZINC000191003171   -0.0100
     18 C18       -11.5156   -5.5389   57.4892 C.ar    1  ZINC000191003171   -0.1300
     19 C19       -10.7449   -4.8850   58.4327 C.ar    1  ZINC000191003171    0.0100
     20 C20       -11.1560   -3.6659   58.9368 C.ar    1  ZINC000191003171   -0.7000
     21 S21       -10.1735   -2.8330   60.1393 S.o2    1  ZINC000191003171    2.5000
     22 C22        -9.6096   -1.3275   59.2990 C.3     1  ZINC000191003171   -0.6500
     23 O23       -11.0887   -2.5115   61.1777 O.2     1  ZINC000191003171   -0.9300
     24 O24        -9.0824   -3.7132   60.3710 O.2     1  ZINC000191003171   -0.9300
     25 C25       -12.3400   -3.0988   58.4963 C.ar    1  ZINC000191003171    0.1900
     26 F26       -12.7429   -1.9068   58.9884 F       1  ZINC000191003171   -0.1200
     27 C27       -13.1082   -3.7519   57.5477 C.ar    1  ZINC000191003171   -0.1700
     28 H28       -10.2711   -3.0938   52.4740 H       1  ZINC000191003171    0.0800
     29 H29       -10.5060   -1.3936   52.9457 H       1  ZINC000191003171    0.0800
     30 H30       -10.8646   -2.6964   54.1044 H       1  ZINC000191003171    0.0600
     31 H31       -12.0191   -0.9166   51.1055 H       1  ZINC000191003171    0.1400
     32 H32       -15.9301   -2.6099   51.2668 H       1  ZINC000191003171    0.1400
     33 H33       -15.2025   -4.1182   53.0722 H       1  ZINC000191003171    0.1400
     34 H34       -12.2469   -5.1527   53.7739 H       1  ZINC000191003171    0.0900
     35 H35       -12.0737   -3.7595   54.8680 H       1  ZINC000191003171    0.0500
     36 H36       -14.4329   -3.9594   55.3515 H       1  ZINC000191003171    0.3500
     37 H37       -14.5014   -6.9545   57.4717 H       1  ZINC000191003171    0.0600
     38 H38       -15.3684   -5.4387   57.1268 H       1  ZINC000191003171    0.0700
     39 H39       -15.3981   -6.7697   55.9453 H       1  ZINC000191003171    0.0600
     40 H40       -11.1938   -6.4918   57.0960 H       1  ZINC000191003171    0.1500
     41 H41        -9.8215   -5.3275   58.7761 H       1  ZINC000191003171    0.1600
     42 H42       -10.4731   -0.7346   58.9974 H       1  ZINC000191003171    0.1300
     43 H43        -8.9874   -0.7440   59.9775 H       1  ZINC000191003171    0.1400
     44 H44        -9.0296   -1.5993   58.4170 H       1  ZINC000191003171    0.1300
     45 H45       -14.0315   -3.3103   57.2030 H       1  ZINC000191003171    0.1500
@<TRIPOS>BOND
     1     1     2    1
     2     1    28    1
     3     1    29    1
     4     1    30    1
     5     2    11   ar
     6     2     3   ar
     7     3     4   ar
     8     3    31    1
     9     4     5    1
    10     4     9   ar
    11     5     6    1
    12     5     7    1
    13     5     8    1
    14     9    10   ar
    15     9    32    1
    16    10    11   ar
    17    10    33    1
    18    11    12    1
    19    12    13    1
    20    12    34    1
    21    12    35    1
    22    13    14    1
    23    13    36    1
    24    14    15    1
    25    14    16    1
    26    14    17    1
    27    16    37    1
    28    16    38    1
    29    16    39    1
    30    17    27   ar
    31    17    18   ar
    32    18    19   ar
    33    18    40    1
    34    19    20   ar
    35    19    41    1
    36    20    21    1
    37    20    25   ar
    38    21    22    1
    39    21    23    2
    40    21    24    2
    41    22    42    1
    42    22    43    1
    43    22    44    1
    44    25    26    1
    45    25    27   ar
    46    27    45    1
@<TRIPOS>SUBSTRUCTURE
     1 ZINC000191003171        1 TEMP              0 ****  ****    0 ROOT


##########                                Name:    ZINC000458730620
##########                DOCK_Rotatable_Bonds:                   9
##########                         Heavy_Atoms:                  25
##########                    Molecular_Weight:              375.44
##########                DOCK_Rotatable_Bonds:                   9
##########                       Formal_Charge:        -1.86265e-07
##########                     HBond_Acceptors:                   9
##########                        HBond_Donors:                   3
##########                         Heavy_Atoms:                  25
##########                          Grid_Score:          -31.960934
##########                     Grid_vdw_energy:          -30.956892
##########                      Grid_es_energy:           -1.004042
##########           Internal_energy_repulsive:           50.200184

@<TRIPOS>MOLECULE
ZINC000458730620
 48 49 1 0 0
SMALL
USER_CHARGES


@<TRIPOS>ATOM
      1 C1         -9.3521    0.0285   67.1920 C.3     1  ZINC000458730620   -0.1600
      2 C2         -8.5819    0.7533   66.0862 C.3     1  ZINC000458730620    0.2000
      3 C3         -7.0816    0.6792   66.3770 C.3     1  ZINC000458730620   -0.1600
      4 N4         -8.8616    0.1151   64.7974 N.am    1  ZINC000458730620   -0.7400
      5 C5        -10.1092    0.1430   64.2884 C.2     1  ZINC000458730620    0.7100
      6 O6        -11.0030    0.6964   64.8995 O.2     1  ZINC000458730620   -0.5800
      7 N7        -10.3662   -0.4426   63.1020 N.am    1  ZINC000458730620   -0.7500
      8 C8        -11.7219   -0.4108   62.5479 C.3     1  ZINC000458730620    0.1300
      9 C9        -11.7575   -1.2056   61.2409 C.3     1  ZINC000458730620    0.1000
     10 N10       -10.8065   -0.6244   60.2900 N.am    1  ZINC000458730620   -1.1100
     11 S11        -9.7462   -1.6028   59.4769 S.o2    1  ZINC000458730620    2.7000
     12 O12        -9.0771   -0.7745   58.5358 O.2     1  ZINC000458730620   -0.9400
     13 O13        -9.0650   -2.3643   60.4645 O.2     1  ZINC000458730620   -0.9400
     14 C14       -10.7049   -2.7464   58.5403 C.ar    1  ZINC000458730620   -0.7300
     15 C15       -10.3398   -4.0784   58.4934 C.ar    1  ZINC000458730620    0.0400
     16 C16       -11.0913   -4.9767   57.7594 C.ar    1  ZINC000458730620   -0.1800
     17 C17       -12.2109   -4.5429   57.0702 C.ar    1  ZINC000458730620    0.1900
     18 F18       -12.9456   -5.4213   56.3532 F       1  ZINC000458730620   -0.1200
     19 C19       -12.5778   -3.2088   57.1164 C.ar    1  ZINC000458730620   -0.2100
     20 C20       -11.8275   -2.3111   57.8559 C.ar    1  ZINC000458730620    0.2200
     21 F21       -12.1843   -1.0090   57.9018 F       1  ZINC000458730620   -0.1100
     22 C22        -9.0200    2.2183   66.0356 C.3     1  ZINC000458730620   -0.1100
     23 C23       -10.2696    2.5171   66.8805 C.3     1  ZINC000458730620   -0.1400
     24 C24        -9.5817    3.8297   67.2914 C.3     1  ZINC000458730620   -0.1400
     25 C25        -8.2444    3.1270   67.0040 C.3     1  ZINC000458730620   -0.1400
     26 H26        -9.0964    0.4638   68.1580 H       1  ZINC000458730620    0.0600
     27 H27       -10.4230    0.1341   67.0179 H       1  ZINC000458730620    0.0500
     28 H28        -9.0857   -1.0283   67.1875 H       1  ZINC000458730620    0.0800
     29 H29        -6.7697   -0.3646   66.4131 H       1  ZINC000458730620    0.0800
     30 H30        -6.5329    1.1954   65.5893 H       1  ZINC000458730620    0.0500
     31 H31        -6.8736    1.1539   67.3360 H       1  ZINC000458730620    0.0600
     32 H32        -8.1489   -0.3273   64.3105 H       1  ZINC000458730620    0.3900
     33 H33        -9.6534   -0.8851   62.6151 H       1  ZINC000458730620    0.4000
     34 H34       -12.4166   -0.8538   63.2614 H       1  ZINC000458730620    0.0800
     35 H35       -12.0107    0.6220   62.3529 H       1  ZINC000458730620    0.0800
     36 H36       -11.4857   -2.2425   61.4387 H       1  ZINC000458730620    0.0900
     37 H37       -12.7620   -1.1673   60.8196 H       1  ZINC000458730620    0.0700
     38 H38       -10.7981    0.3332   60.1365 H       1  ZINC000458730620    0.4300
     39 H39        -9.4663   -4.4175   59.0305 H       1  ZINC000458730620    0.1700
     40 H40       -10.8048   -6.0173   57.7233 H       1  ZINC000458730620    0.1600
     41 H41       -13.4510   -2.8695   56.5790 H       1  ZINC000458730620    0.1600
     42 H42        -9.0747    2.6089   65.0195 H       1  ZINC000458730620    0.1100
     43 H43       -11.1725    2.6643   66.2879 H       1  ZINC000458730620    0.0700
     44 H44       -10.4138    1.8222   67.7079 H       1  ZINC000458730620    0.0800
     45 H45        -9.7912    4.6615   66.6188 H       1  ZINC000458730620    0.0800
     46 H46        -9.7231    4.0868   68.3411 H       1  ZINC000458730620    0.0700
     47 H47        -7.8348    2.5988   67.8650 H       1  ZINC000458730620    0.0800
     48 H48        -7.5123    3.7664   66.5109 H       1  ZINC000458730620    0.0700
@<TRIPOS>BOND
     1     1     2    1
     2     1    26    1
     3     1    27    1
     4     1    28    1
     5     2     3    1
     6     2     4    1
     7     2    22    1
     8     3    29    1
     9     3    30    1
    10     3    31    1
    11     4     5   am
    12     4    32    1
    13     5     6    2
    14     5     7   am
    15     7     8    1
    16     7    33    1
    17     8     9    1
    18     8    34    1
    19     8    35    1
    20     9    10    1
    21     9    36    1
    22     9    37    1
    23    10    11   am
    24    10    38    1
    25    11    12    2
    26    11    13    2
    27    11    14    1
    28    14    20   ar
    29    14    15   ar
    30    15    16   ar
    31    15    39    1
    32    16    17   ar
    33    16    40    1
    34    17    18    1
    35    17    19   ar
    36    19    20   ar
    37    19    41    1
    38    20    21    1
    39    22    25    1
    40    22    23    1
    41    22    42    1
    42    23    24    1
    43    23    43    1
    44    23    44    1
    45    24    25    1
    46    24    45    1
    47    24    46    1
    48    25    47    1
    49    25    48    1
@<TRIPOS>SUBSTRUCTURE
     1 ZINC000458730620        1 TEMP              0 ****  ****    0 ROOT


##########                                Name:    ZINC000451019064
##########                DOCK_Rotatable_Bonds:                   8
##########                         Heavy_Atoms:                  23
##########                    Molecular_Weight:             346.534
##########                DOCK_Rotatable_Bonds:                   8
##########                       Formal_Charge:          -0.0200008
##########                     HBond_Acceptors:                   6
##########                        HBond_Donors:                   1
##########                         Heavy_Atoms:                  23
##########                          Grid_Score:          -31.955145
##########                     Grid_vdw_energy:          -31.707872
##########                      Grid_es_energy:           -0.247272
##########           Internal_energy_repulsive:            6.380842

@<TRIPOS>MOLECULE
ZINC000451019064
 57 58 1 0 0
SMALL
USER_CHARGES


@<TRIPOS>ATOM
      1 C1         -0.4631    2.9781   50.9075 C.3     1  ZINC000451019064   -0.1500
      2 C2         -1.8110    3.0462   50.1867 C.3     1  ZINC000451019064    0.0900
      3 H3         -2.0562    4.0861   49.9710 H       1  ZINC000451019064    0.0700
      4 C4         -2.8981    2.4386   51.0772 C.3     1  ZINC000451019064    0.0200
      5 N5         -4.1756    2.4364   50.3497 N.3     1  ZINC000451019064   -0.5400
      6 C6         -5.2597    1.9123   51.1912 C.3     1  ZINC000451019064    0.0600
      7 C7         -5.8365    3.0446   52.0434 C.3     1  ZINC000451019064   -0.1300
      8 C8         -7.3299    3.1958   51.7474 C.3     1  ZINC000451019064    0.1100
      9 N9         -8.0743    2.1412   52.4402 N.am    1  ZINC000451019064   -1.1200
     10 S10        -9.5355    2.4827   53.1408 S.o2    1  ZINC000451019064    2.6100
     11 O11        -9.2237    3.4189   54.1633 O.2     1  ZINC000451019064   -0.9600
     12 O12       -10.3722    2.8410   52.0496 O.2     1  ZINC000451019064   -0.9500
     13 C13       -10.0706    0.9068   53.8625 C.3     1  ZINC000451019064   -0.6300
     14 C14       -10.2468   -0.1296   52.7509 C.3     1  ZINC000451019064   -0.1100
     15 C15       -10.9607   -1.3616   53.3106 C.3     1  ZINC000451019064   -0.0800
     16 C16       -12.4391   -1.0370   53.5334 C.3     1  ZINC000451019064   -0.1200
     17 C17       -13.1531   -2.2690   54.0932 C.3     1  ZINC000451019064   -0.1200
     18 C18       -13.0291   -3.4257   53.0994 C.3     1  ZINC000451019064   -0.1200
     19 C19       -11.5506   -3.7504   52.8766 C.3     1  ZINC000451019064   -0.1200
     20 C20       -10.8367   -2.5183   52.3168 C.3     1  ZINC000451019064   -0.1200
     21 C21        -4.0619    1.6710   49.0996 C.3     1  ZINC000451019064    0.0200
     22 C22        -2.9631    2.2862   48.2290 C.3     1  ZINC000451019064    0.0900
     23 H23        -3.2422    3.3038   47.9557 H       1  ZINC000451019064    0.0700
     24 C24        -2.7855    1.4474   46.9618 C.3     1  ZINC000451019064   -0.1500
     25 O25        -1.7360    2.3095   48.9632 O.3     1  ZINC000451019064   -0.3800
     26 H26         0.3108    3.4093   50.2724 H       1  ZINC000451019064    0.0700
     27 H27        -0.5214    3.5384   51.8406 H       1  ZINC000451019064    0.0700
     28 H28        -0.2184    1.9380   51.1229 H       1  ZINC000451019064    0.0600
     29 H29        -2.6258    1.4158   51.3375 H       1  ZINC000451019064    0.0400
     30 H30        -2.9978    3.0320   51.9860 H       1  ZINC000451019064    0.0900
     31 H31        -6.0441    1.4989   50.5573 H       1  ZINC000451019064    0.0400
     32 H32        -4.8687    1.1305   51.8422 H       1  ZINC000451019064    0.0800
     33 H33        -5.6971    2.8119   53.0991 H       1  ZINC000451019064    0.0800
     34 H34        -5.3228    3.9762   51.8057 H       1  ZINC000451019064    0.0800
     35 H35        -7.6723    4.1706   52.0949 H       1  ZINC000451019064    0.0800
     36 H36        -7.4975    3.1134   50.6735 H       1  ZINC000451019064    0.0700
     37 H37        -7.7114    1.2430   52.4885 H       1  ZINC000451019064    0.4200
     38 H38        -9.3184    0.5569   54.5696 H       1  ZINC000451019064    0.1300
     39 H39       -11.0189    1.0480   54.3812 H       1  ZINC000451019064    0.1400
     40 H40       -10.8413    0.2999   51.9446 H       1  ZINC000451019064    0.0800
     41 H41        -9.2689   -0.4198   52.3664 H       1  ZINC000451019064    0.0800
     42 H42       -10.5044   -1.6465   54.2586 H       1  ZINC000451019064    0.0800
     43 H43       -12.5275   -0.2130   54.2414 H       1  ZINC000451019064    0.0600
     44 H44       -12.8954   -0.7520   52.5854 H       1  ZINC000451019064    0.0700
     45 H45       -12.6968   -2.5539   55.0411 H       1  ZINC000451019064    0.0600
     46 H46       -14.2064   -2.0378   54.2519 H       1  ZINC000451019064    0.0600
     47 H47       -13.5377   -4.3034   53.4981 H       1  ZINC000451019064    0.0600
     48 H48       -13.4853   -3.1408   52.1514 H       1  ZINC000451019064    0.0600
     49 H49       -11.0943   -4.0353   53.8246 H       1  ZINC000451019064    0.0600
     50 H50       -11.4622   -4.5745   52.1686 H       1  ZINC000451019064    0.0600
     51 H51       -11.2929   -2.2334   51.3688 H       1  ZINC000451019064    0.0700
     52 H52        -9.7834   -2.7497   52.1581 H       1  ZINC000451019064    0.0600
     53 H53        -3.8081    0.6360   49.3284 H       1  ZINC000451019064    0.0400
     54 H54        -5.0112    1.7041   48.5650 H       1  ZINC000451019064    0.0900
     55 H55        -3.7222    1.4283   46.4046 H       1  ZINC000451019064    0.0700
     56 H56        -2.0032    1.8859   46.3424 H       1  ZINC000451019064    0.0700
     57 H57        -2.5049    0.4304   47.2357 H       1  ZINC000451019064    0.0600
@<TRIPOS>BOND
     1     1     2    1
     2     1    26    1
     3     1    27    1
     4     1    28    1
     5     2     3    1
     6     2    25    1
     7     2     4    1
     8     4     5    1
     9     4    29    1
    10     4    30    1
    11     5     6    1
    12     5    21    1
    13     6     7    1
    14     6    31    1
    15     6    32    1
    16     7     8    1
    17     7    33    1
    18     7    34    1
    19     8     9    1
    20     8    35    1
    21     8    36    1
    22     9    10   am
    23     9    37    1
    24    10    11    2
    25    10    12    2
    26    10    13    1
    27    13    14    1
    28    13    38    1
    29    13    39    1
    30    14    15    1
    31    14    40    1
    32    14    41    1
    33    15    20    1
    34    15    16    1
    35    15    42    1
    36    16    17    1
    37    16    43    1
    38    16    44    1
    39    17    18    1
    40    17    45    1
    41    17    46    1
    42    18    19    1
    43    18    47    1
    44    18    48    1
    45    19    20    1
    46    19    49    1
    47    19    50    1
    48    20    51    1
    49    20    52    1
    50    21    22    1
    51    21    53    1
    52    21    54    1
    53    22    23    1
    54    22    24    1
    55    22    25    1
    56    24    55    1
    57    24    56    1
    58    24    57    1
@<TRIPOS>SUBSTRUCTURE
     1 ZINC000451019064        1 TEMP              0 ****  ****    0 ROOT


##########                                Name:    ZINC000463474628
##########                DOCK_Rotatable_Bonds:                   5
##########                         Heavy_Atoms:                  25
##########                    Molecular_Weight:              407.35
##########                DOCK_Rotatable_Bonds:                   5
##########                       Formal_Charge:           0.0200004
##########                     HBond_Acceptors:                   4
##########                        HBond_Donors:                   0
##########                         Heavy_Atoms:                  25
##########                          Grid_Score:          -31.947403
##########                     Grid_vdw_energy:          -31.110563
##########                      Grid_es_energy:           -0.836839
##########           Internal_energy_repulsive:           21.194370

@<TRIPOS>MOLECULE
ZINC000463474628
 52 54 1 0 0
SMALL
USER_CHARGES


@<TRIPOS>ATOM
      1 C1        -15.5755   -2.1893   47.4768 C.3     1  ZINC000463474628   -0.1400
      2 C2        -14.6117   -1.0732   47.8846 C.3     1  ZINC000463474628   -0.1300
      3 C3        -15.1755   -0.3302   49.0973 C.3     1  ZINC000463474628    0.1400
      4 H4        -16.1973   -0.6571   49.2899 H       1  ZINC000463474628    0.0800
      5 C5        -15.1510    1.1910   48.8388 C.3     1  ZINC000463474628   -0.1300
      6 C6        -14.7553    1.7723   50.2218 C.3     1  ZINC000463474628   -0.1300
      7 C7        -13.7724    0.6942   50.7426 C.3     1  ZINC000463474628    0.0900
      8 N8        -14.3369   -0.5893   50.2768 N.am    1  ZINC000463474628   -0.6100
      9 C9        -14.1171   -1.7942   50.8390 C.2     1  ZINC000463474628    0.5300
     10 O10       -14.6349   -2.7857   50.3703 O.2     1  ZINC000463474628   -0.5100
     11 C11       -13.2278   -1.9096   52.0503 C.3     1  ZINC000463474628   -0.1200
     12 H12       -13.1010   -0.9265   52.5035 H       1  ZINC000463474628    0.1000
     13 C13       -11.8623   -2.4587   51.6309 C.3     1  ZINC000463474628   -0.1000
     14 C14       -10.9477   -2.5454   52.8549 C.3     1  ZINC000463474628   -0.1300
     15 C15       -11.5612   -3.5057   53.8788 C.3     1  ZINC000463474628    0.0900
     16 N16       -12.9305   -3.0654   54.1787 N.am    1  ZINC000463474628   -0.6000
     17 C17       -13.3199   -2.8517   55.4512 C.2     1  ZINC000463474628    0.5700
     18 O18       -14.4556   -2.4875   55.6861 O.2     1  ZINC000463474628   -0.5200
     19 C19       -12.3661   -3.0599   56.5607 C.ar    1  ZINC000463474628   -0.1200
     20 C20       -12.1241   -4.3467   57.0446 C.ar    1  ZINC000463474628   -0.0800
     21 C21       -11.2330   -4.5347   58.0804 C.ar    1  ZINC000463474628   -0.1000
     22 C22       -10.5789   -3.4502   58.6401 C.ar    1  ZINC000463474628   -0.0700
     23 Br23       -9.3582   -3.7168   60.0594 Br      1  ZINC000463474628   -0.0400
     24 C24       -10.8148   -2.1711   58.1643 C.ar    1  ZINC000463474628   -0.0900
     25 C25       -11.6991   -1.9710   57.1255 C.ar    1  ZINC000463474628   -0.0300
     26 C26       -11.9547   -0.5785   56.6091 C.3     1  ZINC000463474628   -0.1300
     27 C27       -13.8676   -2.8620   53.0654 C.3     1  ZINC000463474628    0.1200
     28 H28       -15.3936   -3.0696   48.0932 H       1  ZINC000463474628    0.0700
     29 H29       -16.6023   -1.8524   47.6186 H       1  ZINC000463474628    0.0600
     30 H30       -15.4171   -2.4410   46.4282 H       1  ZINC000463474628    0.0300
     31 H31       -13.6438   -1.5045   48.1404 H       1  ZINC000463474628    0.0600
     32 H32       -14.4911   -0.3763   47.0553 H       1  ZINC000463474628    0.0700
     33 H33       -14.4033    1.4424   48.0866 H       1  ZINC000463474628    0.0800
     34 H34       -16.1365    1.5471   48.5384 H       1  ZINC000463474628    0.0800
     35 H35       -14.2569    2.7355   50.1128 H       1  ZINC000463474628    0.0900
     36 H36       -15.6248    1.8558   50.8738 H       1  ZINC000463474628    0.0800
     37 H37       -12.7801    0.8494   50.3193 H       1  ZINC000463474628    0.0700
     38 H38       -13.7287    0.7149   51.8315 H       1  ZINC000463474628    0.0800
     39 H39       -11.9871   -3.4520   51.1998 H       1  ZINC000463474628    0.0800
     40 H40       -11.4159   -1.7951   50.8903 H       1  ZINC000463474628    0.0700
     41 H41        -9.9679   -2.9145   52.5515 H       1  ZINC000463474628    0.0800
     42 H42       -10.8423   -1.5565   53.3011 H       1  ZINC000463474628    0.0700
     43 H43       -11.5837   -4.5142   53.4662 H       1  ZINC000463474628    0.0800
     44 H44       -10.9659   -3.4954   54.7919 H       1  ZINC000463474628    0.1000
     45 H45       -12.6340   -5.1933   56.6091 H       1  ZINC000463474628    0.1400
     46 H46       -11.0452   -5.5297   58.4559 H       1  ZINC000463474628    0.1400
     47 H47       -10.3019   -1.3290   58.6052 H       1  ZINC000463474628    0.1400
     48 H48       -11.3131   -0.3864   55.7492 H       1  ZINC000463474628    0.0700
     49 H49       -12.9991   -0.4877   56.3107 H       1  ZINC000463474628    0.0900
     50 H50       -11.7367    0.1458   57.3940 H       1  ZINC000463474628    0.0700
     51 H51       -14.7936   -2.4275   53.4420 H       1  ZINC000463474628    0.1000
     52 H52       -14.0785   -3.8179   52.5860 H       1  ZINC000463474628    0.0800
@<TRIPOS>BOND
     1     1     2    1
     2     1    28    1
     3     1    29    1
     4     1    30    1
     5     2     3    1
     6     2    31    1
     7     2    32    1
     8     3     4    1
     9     3     8    1
    10     3     5    1
    11     5     6    1
    12     5    33    1
    13     5    34    1
    14     6     7    1
    15     6    35    1
    16     6    36    1
    17     7     8    1
    18     7    37    1
    19     7    38    1
    20     8     9   am
    21     9    10    2
    22     9    11    1
    23    11    12    1
    24    11    27    1
    25    11    13    1
    26    13    14    1
    27    13    39    1
    28    13    40    1
    29    14    15    1
    30    14    41    1
    31    14    42    1
    32    15    16    1
    33    15    43    1
    34    15    44    1
    35    16    17   am
    36    16    27    1
    37    17    18    2
    38    17    19    1
    39    19    25   ar
    40    19    20   ar
    41    20    21   ar
    42    20    45    1
    43    21    22   ar
    44    21    46    1
    45    22    23    1
    46    22    24   ar
    47    24    25   ar
    48    24    47    1
    49    25    26    1
    50    26    48    1
    51    26    49    1
    52    26    50    1
    53    27    51    1
    54    27    52    1
@<TRIPOS>SUBSTRUCTURE
     1 ZINC000463474628        1 TEMP              0 ****  ****    0 ROOT


##########                                Name:    ZINC000929592477
##########                DOCK_Rotatable_Bonds:                   7
##########                         Heavy_Atoms:                  28
##########                    Molecular_Weight:             399.517
##########                DOCK_Rotatable_Bonds:                   7
##########                       Formal_Charge:         -8.9407e-08
##########                     HBond_Acceptors:                   8
##########                        HBond_Donors:                   3
##########                         Heavy_Atoms:                  28
##########                          Grid_Score:          -31.944096
##########                     Grid_vdw_energy:          -30.276264
##########                      Grid_es_energy:           -1.667830
##########           Internal_energy_repulsive:           63.216335

@<TRIPOS>MOLECULE
ZINC000929592477
 53 56 1 0 0
SMALL
USER_CHARGES


@<TRIPOS>ATOM
      1 O1        -12.4986   -2.7668   55.6058 O.2     1  ZINC000929592477   -0.5700
      2 C2        -13.2321   -3.2257   54.7514 C.2     1  ZINC000929592477    0.7100
      3 N3        -13.5416   -2.4918   53.6642 N.am    1  ZINC000929592477   -0.6800
      4 C4        -13.0225   -1.1974   53.5210 C.ar    1  ZINC000929592477    0.1600
      5 C5        -12.0537   -0.9404   52.5601 C.ar    1  ZINC000929592477   -0.1300
      6 C6        -11.5419    0.3340   52.4191 C.ar    1  ZINC000929592477   -0.0800
      7 C7        -11.9967    1.3596   53.2386 C.ar    1  ZINC000929592477   -0.1000
      8 S8        -11.3445    2.9865   53.0587 S.3     1  ZINC000929592477   -0.1100
      9 C9         -9.7753    2.7037   52.1938 C.3     1  ZINC000929592477   -0.0800
     10 C10        -9.0192    4.0402   51.9915 C.3     1  ZINC000929592477   -0.1200
     11 C11        -7.5483    3.5807   51.8352 C.3     1  ZINC000929592477   -0.1200
     12 C12        -7.4072    2.4163   52.8372 C.3     1  ZINC000929592477   -0.1200
     13 C13        -8.8232    1.8586   53.0652 C.3     1  ZINC000929592477   -0.1000
     14 C14       -12.9666    1.1022   54.1996 C.ar    1  ZINC000929592477   -0.1200
     15 C15       -13.4815   -0.1714   54.3363 C.ar    1  ZINC000929592477   -0.1000
     16 N16       -13.7311   -4.4700   54.8890 N.am    1  ZINC000929592477   -0.7300
     17 C17       -13.3946   -5.2677   56.0708 C.3     1  ZINC000929592477    0.1500
     18 H18       -13.4584   -6.3324   55.8467 H       1  ZINC000929592477    0.1200
     19 C19       -14.3189   -4.9010   57.2619 C.3     1  ZINC000929592477   -0.1400
     20 C20       -13.6132   -3.6433   57.8275 C.3     1  ZINC000929592477    0.1100
     21 N21       -12.1729   -3.9187   57.6765 N.pl3   1  ZINC000929592477   -0.6000
     22 C22       -11.1627   -3.3508   58.4255 C.2     1  ZINC000929592477    0.4600
     23 C23       -11.1120   -1.9779   58.6006 C.2     1  ZINC000929592477   -0.4000
     24 C24       -10.0694   -1.4411   59.3685 C.2     1  ZINC000929592477    0.5300
     25 O25        -9.9863   -0.2366   59.5491 O.2     1  ZINC000929592477   -0.5500
     26 N26        -9.1595   -2.2811   59.9046 N.am    1  ZINC000929592477   -0.6400
     27 C27        -9.2579   -3.6100   59.7012 C.2     1  ZINC000929592477    0.4100
     28 N28       -10.2253   -4.1255   58.9938 N.2     1  ZINC000929592477   -0.5700
     29 C29       -11.9891   -4.9030   56.5936 C.3     1  ZINC000929592477    0.1100
     30 H30       -14.1235   -2.8593   52.9806 H       1  ZINC000929592477    0.4100
     31 H31       -11.7001   -1.7377   51.9233 H       1  ZINC000929592477    0.1300
     32 H32       -10.7878    0.5336   51.6722 H       1  ZINC000929592477    0.1300
     33 H33        -9.9514    2.2140   51.2361 H       1  ZINC000929592477    0.1000
     34 H34        -9.3638    4.5463   51.0897 H       1  ZINC000929592477    0.0700
     35 H35        -9.1322    4.6839   52.8640 H       1  ZINC000929592477    0.0800
     36 H36        -7.3631    3.2338   50.8186 H       1  ZINC000929592477    0.0700
     37 H37        -6.8662    4.3908   52.0932 H       1  ZINC000929592477    0.0700
     38 H38        -6.7634    1.6415   52.4210 H       1  ZINC000929592477    0.0700
     39 H39        -6.9937    2.7808   53.7774 H       1  ZINC000929592477    0.0700
     40 H40        -9.0967    1.9525   54.1161 H       1  ZINC000929592477    0.0700
     41 H41        -8.8664    0.8133   52.7596 H       1  ZINC000929592477    0.0800
     42 H42       -13.3206    1.8991   54.8368 H       1  ZINC000929592477    0.1300
     43 H43       -14.2357   -0.3716   55.0831 H       1  ZINC000929592477    0.1400
     44 H44       -14.3131   -4.8374   54.2055 H       1  ZINC000929592477    0.4000
     45 H45       -15.3250   -4.6626   56.9166 H       1  ZINC000929592477    0.0900
     46 H46       -14.3407   -5.7022   58.0005 H       1  ZINC000929592477    0.0900
     47 H47       -13.8930   -2.7606   57.2526 H       1  ZINC000929592477    0.0700
     48 H48       -13.8653   -3.5077   58.8792 H       1  ZINC000929592477    0.0800
     49 H49       -11.8580   -1.3360   58.1559 H       1  ZINC000929592477    0.1500
     50 H50        -8.4311   -1.9270   60.4385 H       1  ZINC000929592477    0.4200
     51 H51        -8.5193   -4.2653   60.1387 H       1  ZINC000929592477    0.2100
     52 H52       -11.4928   -5.7925   56.9814 H       1  ZINC000929592477    0.0900
     53 H53       -11.3957   -4.4648   55.7911 H       1  ZINC000929592477    0.0800
@<TRIPOS>BOND
     1     1     2    2
     2     2     3   am
     3     2    16   am
     4     3     4    1
     5     3    30    1
     6     4    15   ar
     7     4     5   ar
     8     5     6   ar
     9     5    31    1
    10     6     7   ar
    11     6    32    1
    12     7     8    1
    13     7    14   ar
    14     8     9    1
    15     9    13    1
    16     9    10    1
    17     9    33    1
    18    10    11    1
    19    10    34    1
    20    10    35    1
    21    11    12    1
    22    11    36    1
    23    11    37    1
    24    12    13    1
    25    12    38    1
    26    12    39    1
    27    13    40    1
    28    13    41    1
    29    14    15   ar
    30    14    42    1
    31    15    43    1
    32    16    17    1
    33    16    44    1
    34    17    18    1
    35    17    29    1
    36    17    19    1
    37    19    20    1
    38    19    45    1
    39    19    46    1
    40    20    21    1
    41    20    47    1
    42    20    48    1
    43    21    22    1
    44    21    29    1
    45    22    28    1
    46    22    23    2
    47    23    24    1
    48    23    49    1
    49    24    25    2
    50    24    26   am
    51    26    27    1
    52    26    50    1
    53    27    28    2
    54    27    51    1
    55    29    52    1
    56    29    53    1
@<TRIPOS>SUBSTRUCTURE
     1 ZINC000929592477        1 TEMP              0 ****  ****    0 ROOT


##########                                Name:    ZINC001436455587
##########                DOCK_Rotatable_Bonds:                   9
##########                         Heavy_Atoms:                  21
##########                    Molecular_Weight:             378.693
##########                DOCK_Rotatable_Bonds:                   9
##########                       Formal_Charge:          -0.0200001
##########                     HBond_Acceptors:                   5
##########                        HBond_Donors:                   1
##########                         Heavy_Atoms:                  21
##########                          Grid_Score:          -31.936499
##########                     Grid_vdw_energy:          -31.841303
##########                      Grid_es_energy:           -0.095196
##########           Internal_energy_repulsive:           10.292550

@<TRIPOS>MOLECULE
ZINC001436455587
 42 42 1 0 0
SMALL
USER_CHARGES


@<TRIPOS>ATOM
      1 C1        -11.6477   -2.6575   52.1668 C.3     1  ZINC001436455587   -0.1500
      2 C2        -12.0219   -2.5948   53.6489 C.3     1  ZINC001436455587   -0.1300
      3 C3        -12.5890   -3.9459   54.0894 C.3     1  ZINC001436455587   -0.1400
      4 C4        -12.8674   -3.9162   55.5935 C.3     1  ZINC001436455587    0.0800
      5 H5        -13.3243   -2.9629   55.8597 H       1  ZINC001436455587    0.0700
      6 C6        -11.5531   -4.0831   56.3589 C.3     1  ZINC001436455587    0.1200
      7 N7        -11.6376   -3.3699   57.6358 N.am    1  ZINC001436455587   -0.7200
      8 C8        -10.7529   -3.6373   58.6168 C.2     1  ZINC001436455587    0.5200
      9 O9         -9.8861   -4.4672   58.4420 O.2     1  ZINC001436455587   -0.5100
     10 C10       -10.8409   -2.9049   59.9310 C.3     1  ZINC001436455587    0.0600
     11 H11       -10.6138   -3.5922   60.7459 H       1  ZINC001436455587    0.1000
     12 C12       -12.2550   -2.3495   60.1115 C.3     1  ZINC001436455587   -0.1800
     13 O13        -9.9015   -1.8282   59.9401 O.3     1  ZINC001436455587   -0.2700
     14 C14        -9.8003   -1.1070   61.0880 C.ar    1  ZINC001436455587    0.1600
     15 C15        -9.2572   -1.6850   62.2254 C.ar    1  ZINC001436455587   -0.2000
     16 C16        -9.1547   -0.9503   63.3913 C.ar    1  ZINC001436455587   -0.0500
     17 C17        -9.5939    0.3611   63.4247 C.ar    1  ZINC001436455587   -0.0700
     18 Cl18       -9.4644    1.2815   64.8910 Cl      1  ZINC001436455587   -0.0600
     19 C19       -10.1359    0.9405   62.2909 C.ar    1  ZINC001436455587   -0.0400
     20 C20       -10.2354    0.2109   61.1214 C.ar    1  ZINC001436455587   -0.1200
     21 Br21      -10.9761    1.0026   59.5721 Br      1  ZINC001436455587   -0.0100
     22 O22       -13.7560   -4.9820   55.9348 O.3     1  ZINC001436455587   -0.3800
     23 C23       -14.7189   -4.6389   56.9334 C.3     1  ZINC001436455587    0.0200
     24 H24       -10.8977   -3.4337   52.0139 H       1  ZINC001436455587    0.0500
     25 H25       -12.5351   -2.8887   51.5774 H       1  ZINC001436455587    0.0600
     26 H26       -11.2437   -1.6951   51.8529 H       1  ZINC001436455587    0.0600
     27 H27       -11.1346   -2.3638   54.2383 H       1  ZINC001436455587    0.0600
     28 H28       -12.7719   -1.8188   53.8018 H       1  ZINC001436455587    0.0700
     29 H29       -13.5166   -4.1432   53.5521 H       1  ZINC001436455587    0.0800
     30 H30       -11.8671   -4.7322   53.8689 H       1  ZINC001436455587    0.0800
     31 H31       -11.3732   -5.1420   56.5454 H       1  ZINC001436455587    0.0800
     32 H32       -10.7339   -3.6741   55.7677 H       1  ZINC001436455587    0.0800
     33 H33       -12.3302   -2.7052   57.7752 H       1  ZINC001436455587    0.4000
     34 H34       -12.3187   -1.8197   61.0620 H       1  ZINC001436455587    0.0800
     35 H35       -12.4823   -1.6621   59.2966 H       1  ZINC001436455587    0.0800
     36 H36       -12.9717   -3.1707   60.1046 H       1  ZINC001436455587    0.0800
     37 H37        -8.9148   -2.7090   62.2002 H       1  ZINC001436455587    0.1500
     38 H38        -8.7317   -1.4004   64.2772 H       1  ZINC001436455587    0.1400
     39 H39       -10.4779    1.9645   62.3189 H       1  ZINC001436455587    0.1500
     40 H40       -15.3879   -3.8713   56.5444 H       1  ZINC001436455587    0.0500
     41 H41       -15.2970   -5.5237   57.1999 H       1  ZINC001436455587    0.0900
     42 H42       -14.2061   -4.2599   57.8174 H       1  ZINC001436455587    0.0400
@<TRIPOS>BOND
     1     1     2    1
     2     1    24    1
     3     1    25    1
     4     1    26    1
     5     2     3    1
     6     2    27    1
     7     2    28    1
     8     3     4    1
     9     3    29    1
    10     3    30    1
    11     4     5    1
    12     4     6    1
    13     4    22    1
    14     6     7    1
    15     6    31    1
    16     6    32    1
    17     7     8   am
    18     7    33    1
    19     8     9    2
    20     8    10    1
    21    10    11    1
    22    10    12    1
    23    10    13    1
    24    12    34    1
    25    12    35    1
    26    12    36    1
    27    13    14    1
    28    14    20   ar
    29    14    15   ar
    30    15    16   ar
    31    15    37    1
    32    16    17   ar
    33    16    38    1
    34    17    18    1
    35    17    19   ar
    36    19    20   ar
    37    19    39    1
    38    20    21    1
    39    22    23    1
    40    23    40    1
    41    23    41    1
    42    23    42    1
@<TRIPOS>SUBSTRUCTURE
     1 ZINC001436455587        1 TEMP              0 ****  ****    0 ROOT


##########                                Name:    ZINC000541000201
##########                DOCK_Rotatable_Bonds:                  10
##########                         Heavy_Atoms:                  30
##########                    Molecular_Weight:             420.413
##########                DOCK_Rotatable_Bonds:                  10
##########                       Formal_Charge:               -0.03
##########                     HBond_Acceptors:                   9
##########                        HBond_Donors:                   1
##########                         Heavy_Atoms:                  30
##########                          Grid_Score:          -31.933918
##########                     Grid_vdw_energy:          -30.716005
##########                      Grid_es_energy:           -1.217913
##########           Internal_energy_repulsive:            9.398439

@<TRIPOS>MOLECULE
ZINC000541000201
 52 54 1 0 0
SMALL
USER_CHARGES


@<TRIPOS>ATOM
      1 C1        -12.0665   -4.1027   57.7940 C.3     1  ZINC000541000201    0.0400
      2 O2        -12.0110   -2.7947   58.4220 O.3     1  ZINC000541000201   -0.3500
      3 C3        -10.8268   -2.1627   58.4101 C.2     1  ZINC000541000201    0.4500
      4 O4         -9.8444   -2.7283   57.9921 O.2     1  ZINC000541000201   -0.4900
      5 C5        -10.7228   -0.7478   58.9181 C.3     1  ZINC000541000201    0.2100
      6 H6        -11.6662   -0.2296   58.7459 H       1  ZINC000541000201    0.1400
      7 N7         -9.6468   -0.0518   58.2080 N.am    1  ZINC000541000201   -0.7100
      8 C8         -9.9438    0.8493   57.2508 C.2     1  ZINC000541000201    0.5800
      9 O9        -11.1047    1.0859   56.9777 O.2     1  ZINC000541000201   -0.5300
     10 C10        -8.8596    1.5492   56.5341 C.ar    1  ZINC000541000201   -0.2300
     11 C11        -8.7630    1.4702   55.1372 C.ar    1  ZINC000541000201    0.0200
     12 C12        -7.7319    2.1417   54.5126 C.ar    1  ZINC000541000201   -0.2000
     13 C13        -6.8293    2.8692   55.2818 C.ar    1  ZINC000541000201    0.3500
     14 O14        -5.8150    3.5306   54.6739 O.3     1  ZINC000541000201   -0.2900
     15 C15        -4.6750    3.8478   55.4752 C.3     1  ZINC000541000201    0.0800
     16 C16        -3.8524    2.5706   55.7771 C.3     1  ZINC000541000201   -0.1400
     17 C17        -2.4415    3.1356   56.0763 C.3     1  ZINC000541000201   -0.1200
     18 C18        -2.2789    4.2974   55.0745 C.3     1  ZINC000541000201   -0.1200
     19 C19        -3.6990    4.7502   54.6923 C.3     1  ZINC000541000201   -0.1200
     20 N20        -6.9476    2.9249   56.5997 N.ar    1  ZINC000541000201   -0.5400
     21 C21        -7.9187    2.3043   57.2359 C.ar    1  ZINC000541000201    0.1800
     22 C22       -10.4213   -0.7649   60.3945 C.ar    1  ZINC000541000201   -0.1300
     23 C23       -11.1954   -0.0207   61.2656 C.ar    1  ZINC000541000201   -0.0700
     24 C24       -10.9210   -0.0347   62.6195 C.ar    1  ZINC000541000201   -0.1300
     25 C25        -9.8682   -0.7968   63.1048 C.ar    1  ZINC000541000201    0.1200
     26 O26        -9.5966   -0.8125   64.4363 O.3     1  ZINC000541000201   -0.3200
     27 C27        -8.7281    0.2077   64.9333 C.3     1  ZINC000541000201    0.4100
     28 F28        -9.4374    1.4079   65.0500 F       1  ZINC000541000201   -0.2000
     29 F29        -8.2378   -0.1681   66.1886 F       1  ZINC000541000201   -0.2000
     30 C30        -9.0934   -1.5429   62.2287 C.ar    1  ZINC000541000201   -0.1900
     31 C31        -9.3748   -1.5292   60.8763 C.ar    1  ZINC000541000201   -0.0500
     32 H32       -13.0778   -4.5014   57.8735 H       1  ZINC000541000201    0.1000
     33 H33       -11.7929   -4.0129   56.7426 H       1  ZINC000541000201    0.0600
     34 H34       -11.3702   -4.7758   58.2943 H       1  ZINC000541000201    0.0600
     35 H35        -8.7206   -0.2397   58.4267 H       1  ZINC000541000201    0.4100
     36 H36        -9.4775    0.8976   54.5646 H       1  ZINC000541000201    0.1600
     37 H37        -7.6265    2.1027   53.4384 H       1  ZINC000541000201    0.1500
     38 H38        -4.9837    4.3329   56.4011 H       1  ZINC000541000201    0.1000
     39 H39        -4.2525    2.0501   56.6471 H       1  ZINC000541000201    0.0700
     40 H40        -3.8286    1.9122   54.9088 H       1  ZINC000541000201    0.0800
     41 H41        -2.3877    3.5047   57.1005 H       1  ZINC000541000201    0.0700
     42 H42        -1.6811    2.3740   55.9039 H       1  ZINC000541000201    0.0700
     43 H43        -1.7377    5.1202   55.5416 H       1  ZINC000541000201    0.0700
     44 H44        -1.7452    3.9542   54.1882 H       1  ZINC000541000201    0.0700
     45 H45        -3.8545    4.6269   53.6205 H       1  ZINC000541000201    0.0800
     46 H46        -3.8470    5.7927   54.9738 H       1  ZINC000541000201    0.0700
     47 H47        -7.9830    2.3731   58.3117 H       1  ZINC000541000201    0.1600
     48 H48       -12.0149    0.5722   60.8873 H       1  ZINC000541000201    0.1300
     49 H49       -11.5254    0.5472   63.2994 H       1  ZINC000541000201    0.1400
     50 H50        -7.8951    0.3435   64.2436 H       1  ZINC000541000201    0.1900
     51 H51        -8.2730   -2.1366   62.6041 H       1  ZINC000541000201    0.1400
     52 H52        -8.7721   -2.1103   60.1940 H       1  ZINC000541000201    0.1400
@<TRIPOS>BOND
     1     1     2    1
     2     1    32    1
     3     1    33    1
     4     1    34    1
     5     2     3    1
     6     3     4    2
     7     3     5    1
     8     5     6    1
     9     5     7    1
    10     5    22    1
    11     7     8   am
    12     7    35    1
    13     8     9    2
    14     8    10    1
    15    10    21   ar
    16    10    11   ar
    17    11    12   ar
    18    11    36    1
    19    12    13   ar
    20    12    37    1
    21    13    14    1
    22    13    20   ar
    23    14    15    1
    24    15    19    1
    25    15    16    1
    26    15    38    1
    27    16    17    1
    28    16    39    1
    29    16    40    1
    30    17    18    1
    31    17    41    1
    32    17    42    1
    33    18    19    1
    34    18    43    1
    35    18    44    1
    36    19    45    1
    37    19    46    1
    38    20    21   ar
    39    21    47    1
    40    22    31   ar
    41    22    23   ar
    42    23    24   ar
    43    23    48    1
    44    24    25   ar
    45    24    49    1
    46    25    26    1
    47    25    30   ar
    48    26    27    1
    49    27    28    1
    50    27    29    1
    51    27    50    1
    52    30    31   ar
    53    30    51    1
    54    31    52    1
@<TRIPOS>SUBSTRUCTURE
     1 ZINC000541000201        1 TEMP              0 ****  ****    0 ROOT


##########                                Name:    ZINC000599228306
##########                DOCK_Rotatable_Bonds:                   8
##########                         Heavy_Atoms:                  25
##########                    Molecular_Weight:             379.382
##########                DOCK_Rotatable_Bonds:                   8
##########                       Formal_Charge:        -4.09782e-08
##########                     HBond_Acceptors:                  10
##########                        HBond_Donors:                   1
##########                         Heavy_Atoms:                  25
##########                          Grid_Score:          -31.930151
##########                     Grid_vdw_energy:          -31.934795
##########                      Grid_es_energy:            0.004644
##########           Internal_energy_repulsive:           37.829075

@<TRIPOS>MOLECULE
ZINC000599228306
 44 44 1 0 0
SMALL
USER_CHARGES


@<TRIPOS>ATOM
      1 C1         -9.2611    0.3799   64.4589 C.3     1  ZINC000599228306    0.0400
      2 O2         -9.1832   -0.4912   63.2998 O.3     1  ZINC000599228306   -0.3500
      3 C3        -10.2080   -0.4406   62.4266 C.2     1  ZINC000599228306    0.5100
      4 O4        -11.2425    0.1164   62.7358 O.2     1  ZINC000599228306   -0.4800
      5 C5        -10.0740   -1.0618   61.0948 C.ar    1  ZINC000599228306   -0.1500
      6 C6         -9.8849   -2.4409   60.9795 C.ar    1  ZINC000599228306   -0.0100
      7 C7         -9.7602   -3.0153   59.7300 C.ar    1  ZINC000599228306    0.0700
      8 F8         -9.5773   -4.3491   59.6169 F       1  ZINC000599228306   -0.1200
      9 C9         -9.8227   -2.2272   58.5913 C.ar    1  ZINC000599228306    0.0100
     10 C10       -10.0096   -0.8615   58.6972 C.ar    1  ZINC000599228306   -0.7100
     11 S11       -10.0880    0.1302   57.2428 S.o2    1  ZINC000599228306    2.7000
     12 O12       -10.8551    1.2777   57.5806 O.2     1  ZINC000599228306   -0.9200
     13 O13        -8.7629    0.2031   56.7349 O.2     1  ZINC000599228306   -0.9300
     14 N14       -10.9724   -0.7106   56.1233 N.am    1  ZINC000599228306   -1.1000
     15 C15       -12.3587   -1.0837   56.4150 C.3     1  ZINC000599228306    0.1600
     16 H16       -12.5999   -0.8105   57.4424 H       1  ZINC000599228306    0.1300
     17 C17       -13.2974   -0.3470   55.4576 C.3     1  ZINC000599228306   -0.1700
     18 C18       -12.5265   -2.5708   56.2382 C.2     1  ZINC000599228306    0.4700
     19 O19       -11.8086   -3.1734   55.4757 O.2     1  ZINC000599228306   -0.4900
     20 O20       -13.4736   -3.2260   56.9277 O.3     1  ZINC000599228306   -0.3400
     21 C21       -13.6096   -4.6489   56.6722 C.3     1  ZINC000599228306    0.1200
     22 C22       -12.3007   -5.3578   57.0258 C.3     1  ZINC000599228306   -0.1900
     23 C23       -14.7437   -5.2149   57.5290 C.3     1  ZINC000599228306   -0.1400
     24 C24       -13.9276   -4.8733   55.1925 C.3     1  ZINC000599228306   -0.1800
     25 C25       -10.1414   -0.2730   59.9413 C.ar    1  ZINC000599228306    0.2500
     26 F26       -10.3245    1.0617   60.0432 F       1  ZINC000599228306   -0.0900
     27 H27        -8.3752    0.2404   65.0783 H       1  ZINC000599228306    0.1100
     28 H28        -9.3152    1.4178   64.1304 H       1  ZINC000599228306    0.0700
     29 H29       -10.1517    0.1353   65.0379 H       1  ZINC000599228306    0.0700
     30 H30        -9.8360   -3.0564   61.8656 H       1  ZINC000599228306    0.1700
     31 H31        -9.7246   -2.6820   57.6168 H       1  ZINC000599228306    0.1800
     32 H32       -10.5725   -0.9560   55.2743 H       1  ZINC000599228306    0.4300
     33 H33       -14.3290   -0.6246   55.6747 H       1  ZINC000599228306    0.0900
     34 H34       -13.1761    0.7287   55.5856 H       1  ZINC000599228306    0.0700
     35 H35       -13.0562   -0.6202   54.4303 H       1  ZINC000599228306    0.0800
     36 H36       -12.0740   -5.1980   58.0799 H       1  ZINC000599228306    0.0600
     37 H37       -12.4026   -6.4260   56.8339 H       1  ZINC000599228306    0.0700
     38 H38       -11.4926   -4.9546   56.4152 H       1  ZINC000599228306    0.0800
     39 H39       -15.6762   -4.7098   57.2772 H       1  ZINC000599228306    0.0700
     40 H40       -14.8457   -6.2831   57.3373 H       1  ZINC000599228306    0.0800
     41 H41       -14.5171   -5.0551   58.5833 H       1  ZINC000599228306    0.0700
     42 H42       -13.1195   -4.4701   54.5821 H       1  ZINC000599228306    0.0800
     43 H43       -14.0296   -5.9414   55.0007 H       1  ZINC000599228306    0.0700
     44 H44       -14.8600   -4.3682   54.9406 H       1  ZINC000599228306    0.0600
@<TRIPOS>BOND
     1     1     2    1
     2     1    27    1
     3     1    28    1
     4     1    29    1
     5     2     3    1
     6     3     4    2
     7     3     5    1
     8     5    25   ar
     9     5     6   ar
    10     6     7   ar
    11     6    30    1
    12     7     8    1
    13     7     9   ar
    14     9    10   ar
    15     9    31    1
    16    10    11    1
    17    10    25   ar
    18    11    12    2
    19    11    13    2
    20    11    14   am
    21    14    15    1
    22    14    32    1
    23    15    16    1
    24    15    17    1
    25    15    18    1
    26    17    33    1
    27    17    34    1
    28    17    35    1
    29    18    19    2
    30    18    20    1
    31    20    21    1
    32    21    22    1
    33    21    23    1
    34    21    24    1
    35    22    36    1
    36    22    37    1
    37    22    38    1
    38    23    39    1
    39    23    40    1
    40    23    41    1
    41    24    42    1
    42    24    43    1
    43    24    44    1
    44    25    26    1
@<TRIPOS>SUBSTRUCTURE
     1 ZINC000599228306        1 TEMP              0 ****  ****    0 ROOT


##########                                Name:    ZINC000558213406
##########                DOCK_Rotatable_Bonds:                   8
##########                         Heavy_Atoms:                  30
##########                    Molecular_Weight:               408.5
##########                DOCK_Rotatable_Bonds:                   8
##########                       Formal_Charge:          -0.0299987
##########                     HBond_Acceptors:                   7
##########                        HBond_Donors:                   2
##########                         Heavy_Atoms:                  30
##########                          Grid_Score:          -31.924973
##########                     Grid_vdw_energy:          -31.941437
##########                      Grid_es_energy:            0.016465
##########           Internal_energy_repulsive:           10.215386

@<TRIPOS>MOLECULE
ZINC000558213406
 58 61 1 0 0
SMALL
USER_CHARGES


@<TRIPOS>ATOM
      1 O1        -11.7362   -1.1459   56.6889 O.2     1  ZINC000558213406   -0.5700
      2 C2        -11.5133   -2.3321   56.5414 C.2     1  ZINC000558213406    0.7100
      3 N3        -11.3489   -3.1259   57.6181 N.am    1  ZINC000558213406   -0.6800
      4 C4        -11.4290   -2.5832   58.9076 C.ar    1  ZINC000558213406    0.1700
      5 C5        -10.2731   -2.1892   59.5683 C.ar    1  ZINC000558213406   -0.1300
      6 C6        -10.3527   -1.6539   60.8387 C.ar    1  ZINC000558213406   -0.1100
      7 C7        -11.5874   -1.5102   61.4551 C.ar    1  ZINC000558213406    0.0600
      8 O8        -11.6652   -0.9836   62.7061 O.3     1  ZINC000558213406   -0.2500
      9 C9        -11.3929    0.3389   62.8596 C.ar    1  ZINC000558213406    0.0700
     10 C10       -11.6981    1.2442   61.8482 C.ar    1  ZINC000558213406   -0.1500
     11 C11       -11.4017    2.5825   62.0509 C.ar    1  ZINC000558213406   -0.1300
     12 C12       -10.8174    2.9715   63.2416 C.ar    1  ZINC000558213406    0.0600
     13 N13       -10.5403    2.0877   64.1804 N.ar    1  ZINC000558213406   -0.4500
     14 C14       -10.8117    0.8067   64.0298 C.ar    1  ZINC000558213406    0.0800
     15 C15       -12.7427   -1.9033   60.7951 C.ar    1  ZINC000558213406   -0.1000
     16 C16       -12.6648   -2.4339   59.5226 C.ar    1  ZINC000558213406   -0.1100
     17 N17       -11.4362   -2.8541   55.3012 N.am    1  ZINC000558213406   -0.7300
     18 C18       -11.6149   -1.9912   54.1308 C.3     1  ZINC000558213406    0.1500
     19 H19       -11.0950   -1.0432   54.2695 H       1  ZINC000558213406    0.1100
     20 C20       -11.1232   -2.7038   52.8433 C.3     1  ZINC000558213406   -0.1400
     21 C21       -11.9772   -2.0052   51.7558 C.3     1  ZINC000558213406    0.1000
     22 N22       -13.2920   -1.7918   52.3878 N.am    1  ZINC000558213406   -0.6200
     23 C23       -14.4631   -1.6502   51.7360 C.2     1  ZINC000558213406    0.5400
     24 O24       -15.4881   -1.4786   52.3611 O.2     1  ZINC000558213406   -0.5300
     25 C25       -14.4989   -1.7053   50.2304 C.3     1  ZINC000558213406   -0.1000
     26 C26       -15.8466   -2.2664   49.7726 C.3     1  ZINC000558213406   -0.1100
     27 C27       -15.8829   -2.3222   48.2440 C.3     1  ZINC000558213406   -0.1200
     28 C28       -15.6983   -0.9130   47.6776 C.3     1  ZINC000558213406   -0.1200
     29 C29       -14.3506   -0.3519   48.1356 C.3     1  ZINC000558213406   -0.1200
     30 C30       -14.3142   -0.2960   49.6641 C.3     1  ZINC000558213406   -0.1100
     31 C31       -13.1140   -1.7559   53.8498 C.3     1  ZINC000558213406    0.1000
     32 H32       -11.1751   -4.0729   57.5004 H       1  ZINC000558213406    0.4100
     33 H33        -9.3120   -2.3016   59.0888 H       1  ZINC000558213406    0.1300
     34 H34        -9.4536   -1.3474   61.3527 H       1  ZINC000558213406    0.1400
     35 H35       -12.1545    0.9119   60.9275 H       1  ZINC000558213406    0.1400
     36 H36       -11.6244    3.3132   61.2874 H       1  ZINC000558213406    0.1400
     37 H37       -10.5841    4.0133   63.4052 H       1  ZINC000558213406    0.1600
     38 H38       -10.5705    0.1126   64.8212 H       1  ZINC000558213406    0.1700
     39 H39       -13.7036   -1.7912   61.2754 H       1  ZINC000558213406    0.1400
     40 H40       -13.5642   -2.7395   59.0089 H       1  ZINC000558213406    0.1500
     41 H41       -11.2624   -3.8011   55.1836 H       1  ZINC000558213406    0.4000
     42 H42       -10.0604   -2.5255   52.6797 H       1  ZINC000558213406    0.0900
     43 H43       -11.3373   -3.7718   52.8818 H       1  ZINC000558213406    0.0800
     44 H44       -11.5305   -1.0506   51.4779 H       1  ZINC000558213406    0.0700
     45 H45       -12.0767   -2.6476   50.8810 H       1  ZINC000558213406    0.0800
     46 H46       -13.6962   -2.3493   49.8713 H       1  ZINC000558213406    0.0900
     47 H47       -15.9782   -3.2705   50.1761 H       1  ZINC000558213406    0.0600
     48 H48       -16.6493   -1.6224   50.1319 H       1  ZINC000558213406    0.0700
     49 H49       -15.0803   -2.9663   47.8848 H       1  ZINC000558213406    0.0600
     50 H50       -16.8431   -2.7220   47.9178 H       1  ZINC000558213406    0.0700
     51 H51       -15.7242   -0.9529   46.5887 H       1  ZINC000558213406    0.0600
     52 H52       -16.5010   -0.2690   48.0369 H       1  ZINC000558213406    0.0600
     53 H53       -13.5479   -0.9959   47.7763 H       1  ZINC000558213406    0.0600
     54 H54       -14.2191    0.6521   47.7320 H       1  ZINC000558213406    0.0700
     55 H55       -15.1169    0.3480   50.0234 H       1  ZINC000558213406    0.0800
     56 H56       -13.3541    0.1037   49.9903 H       1  ZINC000558213406    0.0600
     57 H57       -13.7043   -2.5455   54.3146 H       1  ZINC000558213406    0.0800
     58 H58       -13.4207   -0.7842   54.2369 H       1  ZINC000558213406    0.0800
@<TRIPOS>BOND
     1     1     2    2
     2     2     3   am
     3     2    17   am
     4     3     4    1
     5     3    32    1
     6     4    16   ar
     7     4     5   ar
     8     5     6   ar
     9     5    33    1
    10     6     7   ar
    11     6    34    1
    12     7     8    1
    13     7    15   ar
    14     8     9    1
    15     9    14   ar
    16     9    10   ar
    17    10    11   ar
    18    10    35    1
    19    11    12   ar
    20    11    36    1
    21    12    13   ar
    22    12    37    1
    23    13    14   ar
    24    14    38    1
    25    15    16   ar
    26    15    39    1
    27    16    40    1
    28    17    18    1
    29    17    41    1
    30    18    19    1
    31    18    31    1
    32    18    20    1
    33    20    21    1
    34    20    42    1
    35    20    43    1
    36    21    22    1
    37    21    44    1
    38    21    45    1
    39    22    23   am
    40    22    31    1
    41    23    24    2
    42    23    25    1
    43    25    30    1
    44    25    26    1
    45    25    46    1
    46    26    27    1
    47    26    47    1
    48    26    48    1
    49    27    28    1
    50    27    49    1
    51    27    50    1
    52    28    29    1
    53    28    51    1
    54    28    52    1
    55    29    30    1
    56    29    53    1
    57    29    54    1
    58    30    55    1
    59    30    56    1
    60    31    57    1
    61    31    58    1
@<TRIPOS>SUBSTRUCTURE
     1 ZINC000558213406        1 TEMP              0 ****  ****    0 ROOT


##########                                Name:    ZINC000347662449
##########                DOCK_Rotatable_Bonds:                   5
##########                         Heavy_Atoms:                  23
##########                    Molecular_Weight:              327.45
##########                DOCK_Rotatable_Bonds:                   5
##########                       Formal_Charge:                0.03
##########                     HBond_Acceptors:                   5
##########                        HBond_Donors:                   0
##########                         Heavy_Atoms:                  23
##########                          Grid_Score:          -31.924675
##########                     Grid_vdw_energy:          -31.295601
##########                      Grid_es_energy:           -0.629073
##########           Internal_energy_repulsive:            5.875242

@<TRIPOS>MOLECULE
ZINC000347662449
 44 46 1 0 0
SMALL
USER_CHARGES


@<TRIPOS>ATOM
      1 C1        -14.2926    0.7159   49.8831 C.2     1  ZINC000347662449   -0.1800
      2 C2        -14.2062    0.7071   51.1903 C.2     1  ZINC000347662449   -0.1700
      3 C3        -14.8300   -0.4152   51.9791 C.3     1  ZINC000347662449    0.1600
      4 N4        -13.8525   -1.4927   52.1519 N.am    1  ZINC000347662449   -0.6200
      5 C5        -12.7580   -1.7758   51.2161 C.3     1  ZINC000347662449    0.1100
      6 C6        -11.7663   -2.6649   51.9987 C.3     1  ZINC000347662449   -0.1100
      7 C7        -12.6923   -3.3213   53.0487 C.3     1  ZINC000347662449   -0.1200
      8 H8        -13.0499   -4.2871   52.6915 H       1  ZINC000347662449    0.1400
      9 S9        -11.8258   -3.5124   54.6263 S.3     1  ZINC000347662449    0.0300
     10 C10       -12.9271   -4.6147   55.4488 C.2     1  ZINC000347662449    0.1900
     11 N11       -13.8521   -5.3476   54.8738 N.2     1  ZINC000347662449   -0.4500
     12 C12       -14.4980   -6.0641   55.8093 C.2     1  ZINC000347662449   -0.0100
     13 C13       -13.9649   -5.7748   57.0086 C.2     1  ZINC000347662449   -0.0400
     14 N14       -12.9600   -4.8564   56.7907 N.pl3   1  ZINC000347662449   -0.4000
     15 C15       -12.1348   -4.2756   57.7638 C.ar    1  ZINC000347662449    0.1100
     16 C16       -10.8658   -4.7882   57.9955 C.ar    1  ZINC000347662449   -0.1100
     17 C17       -10.0549   -4.2137   58.9551 C.ar    1  ZINC000347662449   -0.1000
     18 C18       -10.5062   -3.1294   59.6845 C.ar    1  ZINC000347662449   -0.0800
     19 C19        -9.6189   -2.5047   60.7302 C.3     1  ZINC000347662449   -0.1200
     20 C20       -11.7701   -2.6165   59.4559 C.ar    1  ZINC000347662449   -0.0700
     21 C21       -12.2582   -1.4343   60.2530 C.3     1  ZINC000347662449   -0.1200
     22 C22       -12.5831   -3.1829   58.4939 C.ar    1  ZINC000347662449   -0.1100
     23 C23       -13.8396   -2.3455   53.1908 C.2     1  ZINC000347662449    0.5300
     24 O24       -14.6362   -2.3384   54.1053 O.2     1  ZINC000347662449   -0.4900
     25 H25       -14.8110   -0.0812   49.3709 H       1  ZINC000347662449    0.1000
     26 H26       -13.8493    1.5225   49.3181 H       1  ZINC000347662449    0.1000
     27 H27       -13.6878    1.5042   51.7025 H       1  ZINC000347662449    0.1100
     28 H28       -15.1387   -0.0445   52.9566 H       1  ZINC000347662449    0.0900
     29 H29       -15.6997   -0.7960   51.4437 H       1  ZINC000347662449    0.0900
     30 H30       -13.1358   -2.3094   50.3440 H       1  ZINC000347662449    0.0800
     31 H31       -12.2733   -0.8483   50.9110 H       1  ZINC000347662449    0.0900
     32 H32       -11.3196   -3.4170   51.3482 H       1  ZINC000347662449    0.1100
     33 H33       -10.9970   -2.0611   52.4800 H       1  ZINC000347662449    0.0900
     34 H34       -15.3080   -6.7552   55.6282 H       1  ZINC000347662449    0.1800
     35 H35       -14.2643   -6.1860   57.9613 H       1  ZINC000347662449    0.1800
     36 H36       -10.5128   -5.6354   57.4263 H       1  ZINC000347662449    0.1300
     37 H37        -9.0676   -4.6124   59.1360 H       1  ZINC000347662449    0.1300
     38 H38        -9.0189   -1.7171   60.2743 H       1  ZINC000347662449    0.0800
     39 H39       -10.2351   -2.0795   61.5225 H       1  ZINC000347662449    0.0700
     40 H40        -8.9611   -3.2656   61.1502 H       1  ZINC000347662449    0.0700
     41 H41       -11.9894   -0.5124   59.7374 H       1  ZINC000347662449    0.0800
     42 H42       -13.3418   -1.4894   60.3580 H       1  ZINC000347662449    0.0700
     43 H43       -11.7966   -1.4463   61.2404 H       1  ZINC000347662449    0.0800
     44 H44       -13.5698   -2.7818   58.3157 H       1  ZINC000347662449    0.1300
@<TRIPOS>BOND
     1     1     2    2
     2     1    25    1
     3     1    26    1
     4     2     3    1
     5     2    27    1
     6     3     4    1
     7     3    28    1
     8     3    29    1
     9     4    23   am
    10     4     5    1
    11     5     6    1
    12     5    30    1
    13     5    31    1
    14     6     7    1
    15     6    32    1
    16     6    33    1
    17     7     8    1
    18     7     9    1
    19     7    23    1
    20     9    10    1
    21    10    14    1
    22    10    11    2
    23    11    12    1
    24    12    13    2
    25    12    34    1
    26    13    14    1
    27    13    35    1
    28    14    15    1
    29    15    22   ar
    30    15    16   ar
    31    16    17   ar
    32    16    36    1
    33    17    18   ar
    34    17    37    1
    35    18    19    1
    36    18    20   ar
    37    19    38    1
    38    19    39    1
    39    19    40    1
    40    20    21    1
    41    20    22   ar
    42    21    41    1
    43    21    42    1
    44    21    43    1
    45    22    44    1
    46    23    24    2
@<TRIPOS>SUBSTRUCTURE
     1 ZINC000347662449        1 TEMP              0 ****  ****    0 ROOT


##########                                Name:    ZINC000277085192
##########                DOCK_Rotatable_Bonds:                   4
##########                         Heavy_Atoms:                  23
##########                    Molecular_Weight:             335.747
##########                DOCK_Rotatable_Bonds:                   4
##########                       Formal_Charge:         5.96046e-08
##########                     HBond_Acceptors:                   8
##########                        HBond_Donors:                   2
##########                         Heavy_Atoms:                  23
##########                          Grid_Score:          -31.920336
##########                     Grid_vdw_energy:          -29.445229
##########                      Grid_es_energy:           -2.475108
##########           Internal_energy_repulsive:            5.891096

@<TRIPOS>MOLECULE
ZINC000277085192
 37 39 1 0 0
SMALL
USER_CHARGES


@<TRIPOS>ATOM
      1 O1        -10.9747   -3.0319   61.0800 O.2     1  ZINC000277085192   -0.5000
      2 C2         -9.9365   -2.8156   60.4914 C.2     1  ZINC000277085192    0.5000
      3 C3         -9.5125   -3.7125   59.3570 C.3     1  ZINC000277085192    0.1100
      4 N4        -10.3845   -3.4845   58.2021 N.am    1  ZINC000277085192   -0.6000
      5 C5        -11.3237   -4.5290   57.7895 C.3     1  ZINC000277085192    0.1100
      6 C6        -12.6156   -3.8840   57.2826 C.3     1  ZINC000277085192   -0.1600
      7 C7        -12.2709   -2.7616   56.3361 C.2     1  ZINC000277085192    0.5200
      8 O8        -12.9885   -2.5259   55.3879 O.2     1  ZINC000277085192   -0.5000
      9 N9        -11.1666   -2.0215   56.5450 N.am    1  ZINC000277085192   -0.6700
     10 C10       -10.3149   -2.3181   57.5401 C.2     1  ZINC000277085192    0.7200
     11 O11        -9.4545   -1.5151   57.8435 O.2     1  ZINC000277085192   -0.5500
     12 N12        -9.1648   -1.7698   60.8482 N.am    1  ZINC000277085192   -0.6700
     13 C13        -9.5587   -0.9365   61.9021 C.ar    1  ZINC000277085192    0.1400
     14 C14        -9.1847   -1.2380   63.1985 C.ar    1  ZINC000277085192   -0.0400
     15 C15        -9.5797   -0.4033   64.2556 C.ar    1  ZINC000277085192   -0.1700
     16 C16       -10.3496    0.7283   63.9844 C.ar    1  ZINC000277085192   -0.0500
     17 C17       -10.7170    1.0197   62.6841 C.ar    1  ZINC000277085192   -0.0900
     18 C18       -10.3219    0.1984   61.6441 C.ar    1  ZINC000277085192   -0.0300
     19 Cl19      -10.7903    0.5759   60.0156 Cl      1  ZINC000277085192   -0.0500
     20 C20       -10.6453    1.4596   65.2722 C.3     1  ZINC000277085192   -0.0800
     21 C21        -9.9697    0.6539   66.3902 C.3     1  ZINC000277085192   -0.1700
     22 C22        -9.3094   -0.5136   65.6982 C.2     1  ZINC000277085192    0.4100
     23 O23        -8.6675   -1.3901   66.2370 O.2     1  ZINC000277085192   -0.4300
     24 H24        -8.4812   -3.4895   59.0834 H       1  ZINC000277085192    0.1300
     25 H25        -9.5883   -4.7540   59.6695 H       1  ZINC000277085192    0.1200
     26 H26       -10.8779   -5.1241   56.9924 H       1  ZINC000277085192    0.0800
     27 H27       -11.5484   -5.1722   58.6403 H       1  ZINC000277085192    0.1000
     28 H28       -13.2145   -4.6299   56.7601 H       1  ZINC000277085192    0.1300
     29 H29       -13.1805   -3.4881   58.1265 H       1  ZINC000277085192    0.1200
     30 H30       -10.9854   -1.2611   55.9707 H       1  ZINC000277085192    0.4300
     31 H31        -8.3365   -1.5946   60.3749 H       1  ZINC000277085192    0.4200
     32 H32        -8.5888   -2.1163   63.3980 H       1  ZINC000277085192    0.1500
     33 H33       -11.3132    1.8964   62.4786 H       1  ZINC000277085192    0.1500
     34 H34       -10.2312    2.4672   65.2341 H       1  ZINC000277085192    0.1000
     35 H35       -11.7215    1.5026   65.4395 H       1  ZINC000277085192    0.1000
     36 H36        -9.2223    1.2646   66.8969 H       1  ZINC000277085192    0.1100
     37 H37       -10.7144    0.2988   67.1026 H       1  ZINC000277085192    0.1100
@<TRIPOS>BOND
     1     1     2    2
     2     2     3    1
     3     2    12   am
     4     3     4    1
     5     3    24    1
     6     3    25    1
     7     4    10   am
     8     4     5    1
     9     5     6    1
    10     5    26    1
    11     5    27    1
    12     6     7    1
    13     6    28    1
    14     6    29    1
    15     7     8    2
    16     7     9   am
    17     9    10   am
    18     9    30    1
    19    10    11    2
    20    12    13    1
    21    12    31    1
    22    13    18   ar
    23    13    14   ar
    24    14    15   ar
    25    14    32    1
    26    15    22    1
    27    15    16   ar
    28    16    17   ar
    29    16    20    1
    30    17    18   ar
    31    17    33    1
    32    18    19    1
    33    20    21    1
    34    20    34    1
    35    20    35    1
    36    21    22    1
    37    21    36    1
    38    21    37    1
    39    22    23    2
@<TRIPOS>SUBSTRUCTURE
     1 ZINC000277085192        1 TEMP              0 ****  ****    0 ROOT


##########                                Name:    ZINC000676564986
##########                DOCK_Rotatable_Bonds:                   5
##########                         Heavy_Atoms:                  25
##########                    Molecular_Weight:             347.444
##########                DOCK_Rotatable_Bonds:                   5
##########                       Formal_Charge:          -0.0100005
##########                     HBond_Acceptors:                   6
##########                        HBond_Donors:                   1
##########                         Heavy_Atoms:                  25
##########                          Grid_Score:          -31.864185
##########                     Grid_vdw_energy:          -31.686720
##########                      Grid_es_energy:           -0.177465
##########           Internal_energy_repulsive:            5.858740

@<TRIPOS>MOLECULE
ZINC000676564986
 42 45 1 0 0
SMALL
USER_CHARGES


@<TRIPOS>ATOM
      1 C1         -7.2299   -0.0988   50.6979 C.3     1  ZINC000676564986    0.0800
      2 N2         -8.1459    0.0308   51.8339 N.pl3   1  ZINC000676564986   -0.4800
      3 C3         -8.1738    1.0532   52.7350 C.2     1  ZINC000676564986    0.2500
      4 N4         -9.1131    0.8475   53.6120 N.2     1  ZINC000676564986   -0.4600
      5 C5         -9.7458   -0.3168   53.3303 C.ar    1  ZINC000676564986   -0.1100
      6 C6        -10.8069   -1.0307   53.9122 C.ar    1  ZINC000676564986    0.5100
      7 N7        -11.4494   -0.5502   55.0397 N.pl3   1  ZINC000676564986   -0.6900
      8 C8        -12.1862   -1.4693   55.9106 C.3     1  ZINC000676564986    0.1700
      9 C9        -11.4928   -1.5609   57.2456 C.ar    1  ZINC000676564986   -0.0800
     10 C10       -11.2422   -2.7987   57.8093 C.ar    1  ZINC000676564986   -0.1100
     11 C11       -10.6071   -2.8864   59.0322 C.ar    1  ZINC000676564986   -0.0700
     12 C12       -10.2197   -1.7290   59.6968 C.ar    1  ZINC000676564986   -0.1300
     13 S13        -9.4086   -1.8361   61.2572 S.3     1  ZINC000676564986   -0.0100
     14 C14       -10.4861   -0.9412   62.3263 C.ar    1  ZINC000676564986   -0.1000
     15 C15        -9.9869   -0.3449   63.4781 C.ar    1  ZINC000676564986   -0.1200
     16 C16       -10.8341    0.3560   64.3133 C.ar    1  ZINC000676564986   -0.1000
     17 C17       -12.1779    0.4650   64.0049 C.ar    1  ZINC000676564986   -0.1200
     18 C18       -12.6781   -0.1273   62.8595 C.ar    1  ZINC000676564986   -0.1000
     19 C19       -11.8358   -0.8253   62.0169 C.ar    1  ZINC000676564986   -0.1000
     20 C20       -10.4732   -0.4869   59.1272 C.ar    1  ZINC000676564986   -0.0700
     21 C21       -11.1037   -0.4070   57.9014 C.ar    1  ZINC000676564986   -0.1100
     22 N22       -11.1795   -2.1781   53.3543 N.ar    1  ZINC000676564986   -0.5900
     23 C23       -10.5727   -2.6440   52.2781 C.ar    1  ZINC000676564986    0.3600
     24 N24        -9.5744   -2.0100   51.6995 N.ar    1  ZINC000676564986   -0.5600
     25 C25        -9.1367   -0.8520   52.1826 C.ar    1  ZINC000676564986    0.3000
     26 H26        -7.6673    0.3804   49.8220 H       1  ZINC000676564986    0.0800
     27 H27        -6.2815    0.3814   50.9392 H       1  ZINC000676564986    0.0900
     28 H28        -7.0594   -1.1546   50.4872 H       1  ZINC000676564986    0.0900
     29 H29        -7.5135    1.9077   52.7232 H       1  ZINC000676564986    0.2200
     30 H30       -11.4119    0.3953   55.2535 H       1  ZINC000676564986    0.4200
     31 H31       -13.2016   -1.0995   56.0532 H       1  ZINC000676564986    0.0800
     32 H32       -12.2205   -2.4569   55.4506 H       1  ZINC000676564986    0.0800
     33 H33       -11.5438   -3.6978   57.2924 H       1  ZINC000676564986    0.1300
     34 H34       -10.4120   -3.8533   59.4720 H       1  ZINC000676564986    0.1400
     35 H35        -8.9377   -0.4299   63.7198 H       1  ZINC000676564986    0.1200
     36 H36       -10.4469    0.8194   65.2087 H       1  ZINC000676564986    0.1300
     37 H37       -12.8382    1.0134   64.6602 H       1  ZINC000676564986    0.1300
     38 H38       -13.7280   -0.0402   62.6218 H       1  ZINC000676564986    0.1300
     39 H39       -12.2271   -1.2872   61.1225 H       1  ZINC000676564986    0.1300
     40 H40       -10.1736    0.4146   59.6409 H       1  ZINC000676564986    0.1300
     41 H41       -11.3010    0.5578   57.4583 H       1  ZINC000676564986    0.1300
     42 H42       -10.9073   -3.5805   51.8571 H       1  ZINC000676564986    0.2000
@<TRIPOS>BOND
     1     1     2    1
     2     1    26    1
     3     1    27    1
     4     1    28    1
     5     2    25    1
     6     2     3    1
     7     3     4    2
     8     3    29    1
     9     4     5    1
    10     5    25   ar
    11     5     6   ar
    12     6     7    1
    13     6    22   ar
    14     7     8    1
    15     7    30    1
    16     8     9    1
    17     8    31    1
    18     8    32    1
    19     9    21   ar
    20     9    10   ar
    21    10    11   ar
    22    10    33    1
    23    11    12   ar
    24    11    34    1
    25    12    13    1
    26    12    20   ar
    27    13    14    1
    28    14    19   ar
    29    14    15   ar
    30    15    16   ar
    31    15    35    1
    32    16    17   ar
    33    16    36    1
    34    17    18   ar
    35    17    37    1
    36    18    19   ar
    37    18    38    1
    38    19    39    1
    39    20    21   ar
    40    20    40    1
    41    21    41    1
    42    22    23   ar
    43    23    24   ar
    44    23    42    1
    45    24    25   ar
@<TRIPOS>SUBSTRUCTURE
     1 ZINC000676564986        1 TEMP              0 ****  ****    0 ROOT


##########                                Name:    ZINC000002873519
##########                DOCK_Rotatable_Bonds:                   5
##########                         Heavy_Atoms:                  25
##########                    Molecular_Weight:             375.207
##########                DOCK_Rotatable_Bonds:                   5
##########                       Formal_Charge:               -0.02
##########                     HBond_Acceptors:                   6
##########                        HBond_Donors:                   0
##########                         Heavy_Atoms:                  25
##########                          Grid_Score:          -31.854059
##########                     Grid_vdw_energy:          -31.343910
##########                      Grid_es_energy:           -0.510150
##########           Internal_energy_repulsive:            9.023315

@<TRIPOS>MOLECULE
ZINC000002873519
 37 39 1 0 0
SMALL
USER_CHARGES


@<TRIPOS>ATOM
      1 C1        -15.6414   -3.7687   59.1214 C.3     1  ZINC000002873519   -0.1500
      2 C2        -15.1870   -3.6465   57.6896 C.2     1  ZINC000002873519    0.4500
      3 O3        -15.3185   -2.5994   57.1013 O.2     1  ZINC000002873519   -0.4800
      4 O4        -14.6358   -4.7015   57.0679 O.3     1  ZINC000002873519   -0.2900
      5 C5        -13.9295   -4.4500   55.9365 C.ar    1  ZINC000002873519    0.1200
      6 C6        -14.5745   -4.3893   54.7125 C.ar    1  ZINC000002873519   -0.1100
      7 C7        -13.8552   -4.1326   53.5606 C.ar    1  ZINC000002873519   -0.0800
      8 C8        -12.4838   -3.9336   53.6174 C.ar    1  ZINC000002873519   -0.0400
      9 Cl9       -11.5967   -3.6119   52.1603 Cl      1  ZINC000002873519   -0.0500
     10 C10       -11.8220   -3.9897   54.8251 C.ar    1  ZINC000002873519   -0.0800
     11 C11       -12.5393   -4.2438   56.0022 C.ar    1  ZINC000002873519   -0.0700
     12 C12       -11.8454   -4.3049   57.2893 C.2     1  ZINC000002873519    0.0400
     13 C13       -11.6440   -3.1507   58.0206 C.2     1  ZINC000002873519   -0.1900
     14 C14       -10.9675   -3.0118   59.3218 C.2     1  ZINC000002873519   -0.2000
     15 C15       -11.0145   -1.7009   59.6395 C.2     1  ZINC000002873519    0.1200
     16 C16       -10.4470   -1.1216   60.8733 C.ar    1  ZINC000002873519   -0.0400
     17 C17       -10.6663    0.2228   61.1823 C.ar    1  ZINC000002873519   -0.0800
     18 C18       -10.1334    0.7577   62.3362 C.ar    1  ZINC000002873519   -0.1100
     19 C19        -9.3818   -0.0349   63.1877 C.ar    1  ZINC000002873519   -0.0200
     20 Cl20       -8.7144    0.6462   64.6384 Cl      1  ZINC000002873519   -0.0600
     21 C21        -9.1607   -1.3686   62.8871 C.ar    1  ZINC000002873519   -0.1100
     22 C22        -9.6934   -1.9173   61.7394 C.ar    1  ZINC000002873519   -0.0800
     23 O23       -11.6459   -0.9883   58.6851 O.3     1  ZINC000002873519   -0.2600
     24 C24       -12.0517   -1.7761   57.6731 C.2     1  ZINC000002873519    0.5200
     25 O25       -12.6462   -1.4249   56.6712 O.2     1  ZINC000002873519   -0.4200
     26 H26       -16.6810   -4.0951   59.1460 H       1  ZINC000002873519    0.1100
     27 H27       -15.0190   -4.4984   59.6391 H       1  ZINC000002873519    0.1000
     28 H28       -15.5527   -2.8006   59.6145 H       1  ZINC000002873519    0.1100
     29 H29       -15.6422   -4.5431   54.6580 H       1  ZINC000002873519    0.1500
     30 H30       -14.3646   -4.0870   52.6094 H       1  ZINC000002873519    0.1500
     31 H31       -10.7540   -3.8347   54.8647 H       1  ZINC000002873519    0.1500
     32 H32       -11.4908   -5.2524   57.6673 H       1  ZINC000002873519    0.1500
     33 H33       -10.5222   -3.8030   59.9067 H       1  ZINC000002873519    0.1700
     34 H34       -11.2516    0.8421   60.5187 H       1  ZINC000002873519    0.1400
     35 H35       -10.3022    1.7971   62.5763 H       1  ZINC000002873519    0.1400
     36 H36        -8.5735   -1.9813   63.5550 H       1  ZINC000002873519    0.1400
     37 H37        -9.5202   -2.9574   61.5060 H       1  ZINC000002873519    0.1400
@<TRIPOS>BOND
     1     1     2    1
     2     1    26    1
     3     1    27    1
     4     1    28    1
     5     2     3    2
     6     2     4    1
     7     4     5    1
     8     5    11   ar
     9     5     6   ar
    10     6     7   ar
    11     6    29    1
    12     7     8   ar
    13     7    30    1
    14     8     9    1
    15     8    10   ar
    16    10    11   ar
    17    10    31    1
    18    11    12    1
    19    12    13    2
    20    12    32    1
    21    13    24    1
    22    13    14    1
    23    14    15    2
    24    14    33    1
    25    15    16    1
    26    15    23    1
    27    16    22   ar
    28    16    17   ar
    29    17    18   ar
    30    17    34    1
    31    18    19   ar
    32    18    35    1
    33    19    20    1
    34    19    21   ar
    35    21    22   ar
    36    21    36    1
    37    22    37    1
    38    23    24    1
    39    24    25    2
@<TRIPOS>SUBSTRUCTURE
     1 ZINC000002873519        1 TEMP              0 ****  ****    0 ROOT


##########                                Name:    ZINC000888733009
##########                DOCK_Rotatable_Bonds:                   6
##########                         Heavy_Atoms:                  25
##########                    Molecular_Weight:             360.434
##########                DOCK_Rotatable_Bonds:                   6
##########                       Formal_Charge:        -1.02073e-06
##########                     HBond_Acceptors:                   7
##########                        HBond_Donors:                   2
##########                         Heavy_Atoms:                  25
##########                          Grid_Score:          -31.848557
##########                     Grid_vdw_energy:          -31.129723
##########                      Grid_es_energy:           -0.718835
##########           Internal_energy_repulsive:            3.590835

@<TRIPOS>MOLECULE
ZINC000888733009
 45 48 1 0 0
SMALL
USER_CHARGES


@<TRIPOS>ATOM
      1 C1        -11.1168   -0.0585   63.1543 C.3     1  ZINC000888733009   -0.1500
      2 C2        -10.3367   -0.1316   61.8401 C.3     1  ZINC000888733009    0.0700
      3 H3         -9.5909    0.6622   61.7980 H       1  ZINC000888733009    0.0700
      4 C4        -11.3017   -0.0281   60.6347 C.3     1  ZINC000888733009   -0.1300
      5 C5        -10.6997   -0.9941   59.6055 C.3     1  ZINC000888733009   -0.1100
      6 C6        -11.6673   -2.0071   58.9988 C.3     1  ZINC000888733009   -0.1300
      7 C7        -10.9032   -1.8123   57.6761 C.3     1  ZINC000888733009    0.1200
      8 N8        -11.7741   -1.7543   56.4995 N.am    1  ZINC000888733009   -0.7100
      9 C9        -11.9870   -2.8631   55.7634 C.2     1  ZINC000888733009    0.5900
     10 O10       -11.4571   -3.9129   56.0772 O.2     1  ZINC000888733009   -0.5600
     11 C11       -12.8570   -2.8046   54.5850 C.2     1  ZINC000888733009   -0.2400
     12 C12       -12.5677   -2.0700   53.4639 C.2     1  ZINC000888733009    0.0800
     13 N13       -11.4298   -1.2974   53.3004 N.am    1  ZINC000888733009   -0.6100
     14 C14       -10.4762   -1.6784   52.4275 C.2     1  ZINC000888733009    0.6000
     15 O15       -10.6156   -2.7006   51.7818 O.2     1  ZINC000888733009   -0.4900
     16 C16        -9.2711   -0.8617   52.2557 C.2     1  ZINC000888733009   -0.0900
     17 C17        -9.0379    0.3555   52.8298 C.2     1  ZINC000888733009   -0.1000
     18 C18        -7.7699    0.7707   52.3942 C.2     1  ZINC000888733009   -0.2300
     19 C19        -7.2905   -0.1987   51.5837 C.2     1  ZINC000888733009    0.0100
     20 O20        -8.1954   -1.1831   51.5074 O.3     1  ZINC000888733009   -0.1600
     21 S21       -13.8004   -2.2386   52.2989 S.3     1  ZINC000888733009    0.3000
     22 C22       -14.7305   -3.3156   53.3255 C.2     1  ZINC000888733009   -0.2800
     23 C23       -14.1094   -3.5205   54.4782 C.2     1  ZINC000888733009   -0.0900
     24 C24       -10.4884   -0.4266   58.2042 C.3     1  ZINC000888733009   -0.1400
     25 C25        -9.4553   -1.5815   60.2844 C.3     1  ZINC000888733009    0.0700
     26 O26        -9.7043   -1.4237   61.7019 O.3     1  ZINC000888733009   -0.3700
     27 H27       -10.4271   -0.1597   63.9923 H       1  ZINC000888733009    0.0600
     28 H28       -11.6295    0.9011   63.2196 H       1  ZINC000888733009    0.0700
     29 H29       -11.8494   -0.8649   63.1873 H       1  ZINC000888733009    0.0600
     30 H30       -12.3049   -0.3465   60.9184 H       1  ZINC000888733009    0.0800
     31 H31       -11.3177    0.9888   60.2427 H       1  ZINC000888733009    0.0800
     32 H32       -11.5705   -3.0092   59.4166 H       1  ZINC000888733009    0.0800
     33 H33       -12.6996   -1.6592   58.9633 H       1  ZINC000888733009    0.0900
     34 H34       -10.0674   -2.5004   57.5500 H       1  ZINC000888733009    0.1200
     35 H35       -12.1974   -0.9180   56.2501 H       1  ZINC000888733009    0.4000
     36 H36       -11.3192   -0.4821   53.8141 H       1  ZINC000888733009    0.4400
     37 H37        -9.7009    0.8943   53.4905 H       1  ZINC000888733009    0.1700
     38 H38        -7.2711    1.6919   52.6571 H       1  ZINC000888733009    0.1600
     39 H39        -6.3335   -0.1840   51.0836 H       1  ZINC000888733009    0.2200
     40 H40       -15.6785   -3.7553   53.0532 H       1  ZINC000888733009    0.1700
     41 H41       -14.5025   -4.1514   55.2617 H       1  ZINC000888733009    0.1500
     42 H42       -11.1874    0.3682   57.9441 H       1  ZINC000888733009    0.0900
     43 H43        -9.4516   -0.1685   57.9884 H       1  ZINC000888733009    0.0800
     44 H44        -9.3463   -2.6362   60.0319 H       1  ZINC000888733009    0.0900
     45 H45        -8.5645   -1.0254   59.9923 H       1  ZINC000888733009    0.0700
@<TRIPOS>BOND
     1     1     2    1
     2     1    27    1
     3     1    28    1
     4     1    29    1
     5     2     3    1
     6     2    26    1
     7     2     4    1
     8     4     5    1
     9     4    30    1
    10     4    31    1
    11     5    24    1
    12     5     6    1
    13     5    25    1
    14     6     7    1
    15     6    32    1
    16     6    33    1
    17     7     8    1
    18     7    24    1
    19     7    34    1
    20     8     9   am
    21     8    35    1
    22     9    10    2
    23     9    11    1
    24    11    23    1
    25    11    12    2
    26    12    13    1
    27    12    21    1
    28    13    14   am
    29    13    36    1
    30    14    15    2
    31    14    16    1
    32    16    20    1
    33    16    17    2
    34    17    18    1
    35    17    37    1
    36    18    19    2
    37    18    38    1
    38    19    20    1
    39    19    39    1
    40    21    22    1
    41    22    23    2
    42    22    40    1
    43    23    41    1
    44    24    42    1
    45    24    43    1
    46    25    26    1
    47    25    44    1
    48    25    45    1
@<TRIPOS>SUBSTRUCTURE
     1 ZINC000888733009        1 TEMP              0 ****  ****    0 ROOT


##########                                Name:    ZINC000031496632
##########                DOCK_Rotatable_Bonds:                   8
##########                         Heavy_Atoms:                  30
##########                    Molecular_Weight:             423.539
##########                DOCK_Rotatable_Bonds:                   8
##########                       Formal_Charge:          -0.0100009
##########                     HBond_Acceptors:                   8
##########                        HBond_Donors:                   1
##########                         Heavy_Atoms:                  30
##########                          Grid_Score:          -31.747505
##########                     Grid_vdw_energy:          -31.073725
##########                      Grid_es_energy:           -0.673781
##########           Internal_energy_repulsive:            8.159055

@<TRIPOS>MOLECULE
ZINC000031496632
 55 58 1 0 0
SMALL
USER_CHARGES


@<TRIPOS>ATOM
      1 C1        -11.2640   -3.0117   52.2425 C.3     1  ZINC000031496632   -0.1600
      2 C2        -11.6791   -2.0039   53.3162 C.3     1  ZINC000031496632    0.1600
      3 C3        -13.1503   -1.6303   53.1234 C.3     1  ZINC000031496632   -0.1600
      4 N4        -11.4963   -2.5997   54.6421 N.pl3   1  ZINC000031496632   -0.3900
      5 N5        -11.6745   -3.9509   54.9543 N.2     1  ZINC000031496632   -0.2300
      6 C6        -11.4336   -4.1538   56.2180 C.2     1  ZINC000031496632    0.0800
      7 C7        -11.0689   -2.8719   56.8109 C.ar    1  ZINC000031496632   -0.2100
      8 C8        -10.7108   -2.4602   58.0998 C.ar    1  ZINC000031496632    0.0100
      9 C9        -10.4228   -1.1189   58.2981 C.ar    1  ZINC000031496632    0.0500
     10 N10       -10.0587   -0.6540   59.5686 N.am    1  ZINC000031496632   -0.6600
     11 C11       -10.9955   -0.5056   60.5260 C.2     1  ZINC000031496632    0.5500
     12 O12       -12.1572   -0.7752   60.2871 O.2     1  ZINC000031496632   -0.4900
     13 C13       -10.6124   -0.0166   61.8623 C.ar    1  ZINC000031496632   -0.1300
     14 C14        -9.8837   -0.8357   62.7284 C.ar    1  ZINC000031496632   -0.0600
     15 C15        -9.5287   -0.3726   63.9765 C.ar    1  ZINC000031496632   -0.1400
     16 C16        -9.8908    0.9031   64.3798 C.ar    1  ZINC000031496632   -0.0600
     17 C17       -10.6108    1.7244   63.5370 C.ar    1  ZINC000031496632   -0.1500
     18 C18       -10.9726    1.2781   62.2714 C.ar    1  ZINC000031496632   -0.0600
     19 S19       -11.8916    2.3246   61.1921 S.3     1  ZINC000031496632    0.0900
     20 C20       -13.4409    2.5860   62.0987 C.3     1  ZINC000031496632   -0.2000
     21 C21       -14.3818    1.4407   61.8261 C.2     1  ZINC000031496632    0.5500
     22 O22       -14.7093    1.1830   60.6872 O.2     1  ZINC000031496632   -0.5200
     23 N23       -14.8594    0.7032   62.8481 N.am    1  ZINC000031496632   -0.6200
     24 C24       -14.5526    0.9101   64.2709 C.3     1  ZINC000031496632    0.1000
     25 C25       -15.2994   -0.1827   65.0644 C.3     1  ZINC000031496632   -0.1300
     26 C26       -15.5311   -1.2877   64.0002 C.3     1  ZINC000031496632   -0.1300
     27 C27       -15.7812   -0.4408   62.7247 C.3     1  ZINC000031496632    0.1000
     28 C28       -10.4987   -0.2373   57.2211 C.ar    1  ZINC000031496632    0.1600
     29 N29       -10.8379   -0.6489   56.0195 N.ar    1  ZINC000031496632   -0.4900
     30 C30       -11.1179   -1.9221   55.7711 C.ar    1  ZINC000031496632    0.3000
     31 H31       -11.4000   -2.5685   51.2560 H       1  ZINC000031496632    0.0800
     32 H32       -10.2159   -3.2779   52.3799 H       1  ZINC000031496632    0.0600
     33 H33       -11.8801   -3.9069   52.3267 H       1  ZINC000031496632    0.0700
     34 H34       -11.0630   -1.1087   53.2319 H       1  ZINC000031496632    0.1100
     35 H35       -13.2863   -1.1872   52.1369 H       1  ZINC000031496632    0.0800
     36 H36       -13.7665   -2.5256   53.2076 H       1  ZINC000031496632    0.0700
     37 H37       -13.4461   -0.9124   53.8883 H       1  ZINC000031496632    0.0600
     38 H38       -11.4934   -5.1007   56.7341 H       1  ZINC000031496632    0.2000
     39 H39       -10.6608   -3.1664   58.9154 H       1  ZINC000031496632    0.1500
     40 H40        -9.1322   -0.4389   59.7591 H       1  ZINC000031496632    0.4100
     41 H41        -9.5993   -1.8308   62.4201 H       1  ZINC000031496632    0.1300
     42 H42        -8.9653   -1.0073   64.6445 H       1  ZINC000031496632    0.1300
     43 H43        -9.6078    1.2563   65.3604 H       1  ZINC000031496632    0.1300
     44 H44       -10.8895    2.7169   63.8592 H       1  ZINC000031496632    0.1300
     45 H45       -13.2322    2.6382   63.1673 H       1  ZINC000031496632    0.1100
     46 H46       -13.9000    3.5191   61.7721 H       1  ZINC000031496632    0.1100
     47 H47       -13.4788    0.8194   64.4355 H       1  ZINC000031496632    0.0700
     48 H48       -14.8957    1.8960   64.5846 H       1  ZINC000031496632    0.0700
     49 H49       -14.6815   -0.5568   65.8807 H       1  ZINC000031496632    0.0900
     50 H50       -16.2498    0.1957   65.4408 H       1  ZINC000031496632    0.0800
     51 H51       -14.6467   -1.9151   63.8894 H       1  ZINC000031496632    0.0800
     52 H52       -16.4066   -1.8890   64.2456 H       1  ZINC000031496632    0.0900
     53 H53       -16.8158   -0.0993   62.6929 H       1  ZINC000031496632    0.0700
     54 H54       -15.5442   -1.0199   61.8323 H       1  ZINC000031496632    0.0800
     55 H55       -10.2740    0.8074   57.3774 H       1  ZINC000031496632    0.1700
@<TRIPOS>BOND
     1     1     2    1
     2     1    31    1
     3     1    32    1
     4     1    33    1
     5     2     3    1
     6     2     4    1
     7     2    34    1
     8     3    35    1
     9     3    36    1
    10     3    37    1
    11     4    30    1
    12     4     5    1
    13     5     6    2
    14     6     7    1
    15     6    38    1
    16     7    30   ar
    17     7     8   ar
    18     8     9   ar
    19     8    39    1
    20     9    10    1
    21     9    28   ar
    22    10    11   am
    23    10    40    1
    24    11    12    2
    25    11    13    1
    26    13    18   ar
    27    13    14   ar
    28    14    15   ar
    29    14    41    1
    30    15    16   ar
    31    15    42    1
    32    16    17   ar
    33    16    43    1
    34    17    18   ar
    35    17    44    1
    36    18    19    1
    37    19    20    1
    38    20    21    1
    39    20    45    1
    40    20    46    1
    41    21    22    2
    42    21    23   am
    43    23    27    1
    44    23    24    1
    45    24    25    1
    46    24    47    1
    47    24    48    1
    48    25    26    1
    49    25    49    1
    50    25    50    1
    51    26    27    1
    52    26    51    1
    53    26    52    1
    54    27    53    1
    55    27    54    1
    56    28    29   ar
    57    28    55    1
    58    29    30   ar
@<TRIPOS>SUBSTRUCTURE
     1 ZINC000031496632        1 TEMP              0 ****  ****    0 ROOT


##########                                Name:    ZINC000945148121
##########                DOCK_Rotatable_Bonds:                   6
##########                         Heavy_Atoms:                  24
##########                    Molecular_Weight:             332.446
##########                DOCK_Rotatable_Bonds:                   6
##########                       Formal_Charge:           0.0100009
##########                     HBond_Acceptors:                   6
##########                        HBond_Donors:                   2
##########                         Heavy_Atoms:                  24
##########                          Grid_Score:          -31.711884
##########                     Grid_vdw_energy:          -28.396843
##########                      Grid_es_energy:           -3.315042
##########           Internal_energy_repulsive:           17.128935

@<TRIPOS>MOLECULE
ZINC000945148121
 52 54 1 0 0
SMALL
USER_CHARGES


@<TRIPOS>ATOM
      1 O1        -13.7015   -2.4534   50.8741 O.2     1  ZINC000945148121   -0.5100
      2 C2        -14.7202   -2.0955   51.4264 C.2     1  ZINC000945148121    0.5200
      3 C3        -15.7515   -1.3030   50.6652 C.3     1  ZINC000945148121   -0.0500
      4 C4        -15.0683   -0.4735   49.6086 C.2     1  ZINC000945148121    0.0100
      5 C5        -14.6920    0.8134   49.7335 C.2     1  ZINC000945148121   -0.0500
      6 N6        -14.1125    1.1735   48.5469 N.pl3   1  ZINC000945148121   -0.5700
      7 C7        -14.1547    0.0932   47.7376 C.2     1  ZINC000945148121    0.1800
      8 N8        -14.7233   -0.8896   48.3811 N.2     1  ZINC000945148121   -0.4700
      9 N9        -14.9326   -2.4114   52.7193 N.am    1  ZINC000945148121   -0.7300
     10 C10       -13.9300   -3.1818   53.4593 C.3     1  ZINC000945148121    0.1500
     11 C11       -13.0249   -2.2248   54.2385 C.3     1  ZINC000945148121   -0.1400
     12 C12       -11.9566   -3.0316   54.9833 C.3     1  ZINC000945148121    0.1100
     13 N13       -12.6223   -4.0438   55.8146 N.am    1  ZINC000945148121   -0.6100
     14 C14       -12.3576   -4.1319   57.1331 C.2     1  ZINC000945148121    0.5200
     15 O15       -12.9127   -4.9727   57.8082 O.2     1  ZINC000945148121   -0.5400
     16 C16       -11.3718   -3.1856   57.7686 C.3     1  ZINC000945148121   -0.1000
     17 C17       -12.0352   -1.8588   58.0208 C.3     1  ZINC000945148121   -0.1200
     18 C18       -11.0639   -0.6739   57.8594 C.3     1  ZINC000945148121   -0.1200
     19 C19        -9.6782   -0.9491   58.4740 C.3     1  ZINC000945148121   -0.1200
     20 C20        -9.7666   -1.6490   59.8031 C.3     1  ZINC000945148121   -0.1200
     21 C21        -9.6460   -3.1682   59.5659 C.3     1  ZINC000945148121   -0.1200
     22 C22       -10.8979   -3.7610   59.1190 C.3     1  ZINC000945148121   -0.1000
     23 C23       -13.5827   -4.9578   55.1812 C.3     1  ZINC000945148121    0.1100
     24 C24       -14.6327   -4.1294   54.4342 C.3     1  ZINC000945148121   -0.1400
     25 H25       -16.4572   -1.9855   50.1913 H       1  ZINC000945148121    0.1000
     26 H26       -16.2861   -0.6474   51.3525 H       1  ZINC000945148121    0.1000
     27 H27       -14.8228    1.4409   50.6028 H       1  ZINC000945148121    0.1800
     28 H28       -13.7407    2.0424   48.3282 H       1  ZINC000945148121    0.4200
     29 H29       -13.7769    0.0488   46.7269 H       1  ZINC000945148121    0.2100
     30 H30       -15.7492   -2.1286   53.1598 H       1  ZINC000945148121    0.4000
     31 H31       -13.3282   -3.7615   52.7594 H       1  ZINC000945148121    0.0900
     32 H32       -12.5427   -1.5351   53.5458 H       1  ZINC000945148121    0.0800
     33 H33       -13.6221   -1.6625   54.9561 H       1  ZINC000945148121    0.0700
     34 H34       -11.3019   -3.5230   54.2636 H       1  ZINC000945148121    0.0700
     35 H35       -11.3715   -2.3655   55.6173 H       1  ZINC000945148121    0.1000
     36 H36       -10.5157   -3.0504   57.1075 H       1  ZINC000945148121    0.1000
     37 H37       -12.8595   -1.7374   57.3180 H       1  ZINC000945148121    0.0700
     38 H38       -12.4349   -1.8515   59.0348 H       1  ZINC000945148121    0.0700
     39 H39       -10.9415   -0.4618   56.7972 H       1  ZINC000945148121    0.0600
     40 H40       -11.4951    0.2026   58.3431 H       1  ZINC000945148121    0.0700
     41 H41        -9.1043   -1.5700   57.7860 H       1  ZINC000945148121    0.0600
     42 H42        -9.1574   -0.0012   58.6085 H       1  ZINC000945148121    0.0600
     43 H43        -8.9546   -1.3135   60.4483 H       1  ZINC000945148121    0.0600
     44 H44       -10.7255   -1.4264   60.2711 H       1  ZINC000945148121    0.0700
     45 H45        -8.8809   -3.3479   58.8106 H       1  ZINC000945148121    0.0600
     46 H46        -9.3406   -3.6476   60.4959 H       1  ZINC000945148121    0.0600
     47 H47       -11.6648   -3.5748   59.8707 H       1  ZINC000945148121    0.0700
     48 H48       -10.7616   -4.8376   59.0155 H       1  ZINC000945148121    0.0700
     49 H49       -13.0605   -5.6062   54.4776 H       1  ZINC000945148121    0.0700
     50 H50       -14.0705   -5.5624   55.9457 H       1  ZINC000945148121    0.1000
     51 H51       -15.2148   -3.5490   55.1499 H       1  ZINC000945148121    0.0700
     52 H52       -15.2950   -4.7952   53.8807 H       1  ZINC000945148121    0.0800
@<TRIPOS>BOND
     1     1     2    2
     2     2     3    1
     3     2     9   am
     4     3     4    1
     5     3    25    1
     6     3    26    1
     7     4     8    1
     8     4     5    2
     9     5     6    1
    10     5    27    1
    11     6     7    1
    12     6    28    1
    13     7     8    2
    14     7    29    1
    15     9    10    1
    16     9    30    1
    17    10    24    1
    18    10    11    1
    19    10    31    1
    20    11    12    1
    21    11    32    1
    22    11    33    1
    23    12    13    1
    24    12    34    1
    25    12    35    1
    26    13    14   am
    27    13    23    1
    28    14    15    2
    29    14    16    1
    30    16    22    1
    31    16    17    1
    32    16    36    1
    33    17    18    1
    34    17    37    1
    35    17    38    1
    36    18    19    1
    37    18    39    1
    38    18    40    1
    39    19    20    1
    40    19    41    1
    41    19    42    1
    42    20    21    1
    43    20    43    1
    44    20    44    1
    45    21    22    1
    46    21    45    1
    47    21    46    1
    48    22    47    1
    49    22    48    1
    50    23    24    1
    51    23    49    1
    52    23    50    1
    53    24    51    1
    54    24    52    1
@<TRIPOS>SUBSTRUCTURE
     1 ZINC000945148121        1 TEMP              0 ****  ****    0 ROOT


##########                                Name:    ZINC000518242403
##########                DOCK_Rotatable_Bonds:                   6
##########                         Heavy_Atoms:                  27
##########                    Molecular_Weight:             370.405
##########                DOCK_Rotatable_Bonds:                   6
##########                       Formal_Charge:          -0.0200004
##########                     HBond_Acceptors:                   7
##########                        HBond_Donors:                   1
##########                         Heavy_Atoms:                  27
##########                          Grid_Score:          -31.697147
##########                     Grid_vdw_energy:          -32.117443
##########                      Grid_es_energy:            0.420295
##########           Internal_energy_repulsive:           29.192278

@<TRIPOS>MOLECULE
ZINC000518242403
 49 52 1 0 0
SMALL
USER_CHARGES


@<TRIPOS>ATOM
      1 C1        -14.7317   -2.3831   53.7523 C.3     1  ZINC000518242403   -0.1800
      2 C2        -13.7367   -2.8687   52.6963 C.3     1  ZINC000518242403    0.1000
      3 N3        -12.3754   -2.7784   53.2300 N.am    1  ZINC000518242403   -0.6200
      4 C4        -11.9319   -3.7125   54.2677 C.3     1  ZINC000518242403    0.1500
      5 C5        -11.5545   -2.9324   55.5286 C.3     1  ZINC000518242403    0.0300
      6 H6        -10.6963   -2.2928   55.3221 H       1  ZINC000518242403    0.0900
      7 C7        -12.7431   -2.0732   55.9806 C.3     1  ZINC000518242403    0.0300
      8 O8        -12.3616   -1.3690   57.1674 O.3     1  ZINC000518242403   -0.3000
      9 C9        -11.7345   -2.0939   58.1337 C.ar    1  ZINC000518242403    0.0500
     10 C10       -11.6630   -1.5905   59.4237 C.ar    1  ZINC000518242403   -0.1100
     11 C11       -11.0265   -2.3138   60.4151 C.ar    1  ZINC000518242403   -0.1200
     12 C12       -10.4600   -3.5402   60.1235 C.ar    1  ZINC000518242403   -0.1200
     13 C13       -10.5290   -4.0485   58.8398 C.ar    1  ZINC000518242403   -0.1100
     14 C14       -11.1669   -3.3287   57.8409 C.ar    1  ZINC000518242403    0.0500
     15 O15       -11.2333   -3.8457   56.5835 O.3     1  ZINC000518242403   -0.3000
     16 C16       -11.5309   -1.8359   52.7661 C.2     1  ZINC000518242403    0.7100
     17 O17       -11.8995   -1.0596   51.9058 O.2     1  ZINC000518242403   -0.5700
     18 N18       -10.2780   -1.7538   53.2558 N.am    1  ZINC000518242403   -0.6800
     19 C19        -9.4000   -0.7739   52.7735 C.ar    1  ZINC000518242403    0.1700
     20 C20        -8.6742   -1.0029   51.6128 C.ar    1  ZINC000518242403   -0.1000
     21 C21        -7.8069   -0.0339   51.1363 C.ar    1  ZINC000518242403    0.0500
     22 C22        -7.6649    1.1691   51.8237 C.ar    1  ZINC000518242403    0.0200
     23 C23        -8.3907    1.3934   52.9823 C.ar    1  ZINC000518242403   -0.0800
     24 C24        -9.2602    0.4285   53.4536 C.ar    1  ZINC000518242403   -0.1000
     25 C25       -10.0480    0.6760   54.7142 C.3     1  ZINC000518242403   -0.1100
     26 O26        -6.7614    1.9476   51.1577 O.3     1  ZINC000518242403   -0.3100
     27 C27        -6.0491    1.0496   50.2862 C.3     1  ZINC000518242403    0.2100
     28 O28        -6.9933   -0.0092   50.0405 O.3     1  ZINC000518242403   -0.3100
     29 H29       -14.6486   -3.0056   54.6433 H       1  ZINC000518242403    0.0600
     30 H30       -14.5107   -1.3475   54.0107 H       1  ZINC000518242403    0.0600
     31 H31       -15.7446   -2.4504   53.3553 H       1  ZINC000518242403    0.0700
     32 H32       -13.9577   -3.9044   52.4380 H       1  ZINC000518242403    0.1000
     33 H33       -13.8198   -2.2463   51.8054 H       1  ZINC000518242403    0.0700
     34 H34       -12.7383   -4.4085   54.4988 H       1  ZINC000518242403    0.1100
     35 H35       -11.0642   -4.2672   53.9105 H       1  ZINC000518242403    0.0900
     36 H36       -13.0006   -1.3606   55.1971 H       1  ZINC000518242403    0.1300
     37 H37       -13.5997   -2.7131   56.1924 H       1  ZINC000518242403    0.0800
     38 H38       -12.1048   -0.6323   59.6541 H       1  ZINC000518242403    0.1300
     39 H39       -10.9722   -1.9199   61.4192 H       1  ZINC000518242403    0.1300
     40 H40        -9.9623   -4.1022   60.8997 H       1  ZINC000518242403    0.1300
     41 H41       -10.0854   -5.0071   58.6145 H       1  ZINC000518242403    0.1300
     42 H42        -9.9840   -2.3731   53.9421 H       1  ZINC000518242403    0.4100
     43 H43        -8.7856   -1.9366   51.0815 H       1  ZINC000518242403    0.1500
     44 H44        -8.2806    2.3263   53.5153 H       1  ZINC000518242403    0.1400
     45 H45       -10.9974    1.1487   54.4625 H       1  ZINC000518242403    0.0800
     46 H46       -10.2364   -0.2725   55.2171 H       1  ZINC000518242403    0.0700
     47 H47        -9.4799    1.3309   55.3749 H       1  ZINC000518242403    0.0800
     48 H48        -5.7837    1.5499   49.3549 H       1  ZINC000518242403    0.1300
     49 H49        -5.1587    0.6617   50.7809 H       1  ZINC000518242403    0.0900
@<TRIPOS>BOND
     1     1     2    1
     2     1    29    1
     3     1    30    1
     4     1    31    1
     5     2     3    1
     6     2    32    1
     7     2    33    1
     8     3     4    1
     9     3    16   am
    10     4     5    1
    11     4    34    1
    12     4    35    1
    13     5     6    1
    14     5    15    1
    15     5     7    1
    16     7     8    1
    17     7    36    1
    18     7    37    1
    19     8     9    1
    20     9    14   ar
    21     9    10   ar
    22    10    11   ar
    23    10    38    1
    24    11    12   ar
    25    11    39    1
    26    12    13   ar
    27    12    40    1
    28    13    14   ar
    29    13    41    1
    30    14    15    1
    31    16    17    2
    32    16    18   am
    33    18    19    1
    34    18    42    1
    35    19    24   ar
    36    19    20   ar
    37    20    21   ar
    38    20    43    1
    39    21    28    1
    40    21    22   ar
    41    22    23   ar
    42    22    26    1
    43    23    24   ar
    44    23    44    1
    45    24    25    1
    46    25    45    1
    47    25    46    1
    48    25    47    1
    49    26    27    1
    50    27    28    1
    51    27    48    1
    52    27    49    1
@<TRIPOS>SUBSTRUCTURE
     1 ZINC000518242403        1 TEMP              0 ****  ****    0 ROOT


##########                                Name:    ZINC000225856071
##########                DOCK_Rotatable_Bonds:                   6
##########                         Heavy_Atoms:                  29
##########                    Molecular_Weight:             409.549
##########                DOCK_Rotatable_Bonds:                   6
##########                       Formal_Charge:         -0.00999989
##########                     HBond_Acceptors:                   5
##########                        HBond_Donors:                   1
##########                         Heavy_Atoms:                  29
##########                          Grid_Score:          -31.695879
##########                     Grid_vdw_energy:          -30.940620
##########                      Grid_es_energy:           -0.755259
##########           Internal_energy_repulsive:           33.013123

@<TRIPOS>MOLECULE
ZINC000225856071
 56 58 1 0 0
SMALL
USER_CHARGES


@<TRIPOS>ATOM
      1 C1        -11.5261    0.9613   62.5802 C.3     1  ZINC000225856071    0.0200
      2 O2        -11.9824   -0.3829   62.7436 O.3     1  ZINC000225856071   -0.3100
      3 C3        -11.9033   -1.1975   61.6586 C.ar    1  ZINC000225856071    0.1900
      4 C4        -10.6645   -1.5626   61.1529 C.ar    1  ZINC000225856071   -0.2300
      5 C5        -10.5868   -2.3913   60.0500 C.ar    1  ZINC000225856071    0.0700
      6 C6         -9.2411   -2.7884   59.5001 C.3     1  ZINC000225856071   -0.1800
      7 C7        -11.7424   -2.8569   59.4510 C.ar    1  ZINC000225856071   -0.7100
      8 S8        -11.6399   -3.9140   58.0451 S.o2    1  ZINC000225856071    2.7000
      9 O9        -10.6155   -4.8578   58.3265 O.2     1  ZINC000225856071   -0.9600
     10 O10       -12.9734   -4.2865   57.7252 O.2     1  ZINC000225856071   -0.9500
     11 N11       -11.0947   -2.9953   56.7798 N.am    1  ZINC000225856071   -1.1100
     12 C12       -11.8640   -1.8303   56.3355 C.3     1  ZINC000225856071    0.2400
     13 H13       -12.2876   -1.3227   57.2021 H       1  ZINC000225856071    0.1100
     14 C14       -12.9761   -2.2806   55.4239 C.ar    1  ZINC000225856071   -0.1000
     15 C15       -12.9017   -3.5112   54.7984 C.ar    1  ZINC000225856071   -0.1000
     16 C16       -13.9219   -3.9243   53.9622 C.ar    1  ZINC000225856071   -0.1200
     17 C17       -15.0169   -3.1071   53.7516 C.ar    1  ZINC000225856071   -0.1100
     18 C18       -15.0917   -1.8770   54.3778 C.ar    1  ZINC000225856071   -0.1100
     19 C19       -14.0736   -1.4657   55.2175 C.ar    1  ZINC000225856071   -0.1000
     20 C20       -10.9574   -0.8834   55.5922 C.ar    1  ZINC000225856071   -0.0900
     21 C21       -10.7888   -1.0169   54.2269 C.ar    1  ZINC000225856071   -0.1000
     22 C22        -9.9571   -0.1480   53.5449 C.ar    1  ZINC000225856071   -0.1200
     23 C23        -9.2947    0.8540   54.2284 C.ar    1  ZINC000225856071   -0.0800
     24 C24        -8.3877    1.8007   53.4851 C.3     1  ZINC000225856071   -0.1200
     25 C25        -9.4644    0.9884   55.5939 C.ar    1  ZINC000225856071   -0.1200
     26 C26       -10.2988    0.1223   56.2750 C.ar    1  ZINC000225856071   -0.0600
     27 C27       -10.4839    0.2687   57.7635 C.3     1  ZINC000225856071   -0.1300
     28 C28       -12.9787   -2.4947   59.9536 C.ar    1  ZINC000225856071    0.0200
     29 C29       -13.0617   -1.6700   61.0586 C.ar    1  ZINC000225856071   -0.1400
     30 C30       -14.4094   -1.2761   61.6060 C.3     1  ZINC000225856071   -0.1100
     31 H31       -12.1115    1.4518   61.8025 H       1  ZINC000225856071    0.0600
     32 H32       -11.6444    1.5019   63.5193 H       1  ZINC000225856071    0.1000
     33 H33       -10.4742    0.9557   62.2942 H       1  ZINC000225856071    0.0600
     34 H34        -9.7613   -1.1992   61.6206 H       1  ZINC000225856071    0.1400
     35 H35        -8.9104   -3.7101   59.9789 H       1  ZINC000225856071    0.0900
     36 H36        -9.3203   -2.9459   58.4245 H       1  ZINC000225856071    0.1000
     37 H37        -8.5191   -1.9964   59.6990 H       1  ZINC000225856071    0.0800
     38 H38       -10.2660   -3.2283   56.3328 H       1  ZINC000225856071    0.4200
     39 H39       -12.0463   -4.1496   54.9629 H       1  ZINC000225856071    0.1200
     40 H40       -13.8634   -4.8854   53.4729 H       1  ZINC000225856071    0.1200
     41 H41       -15.8135   -3.4296   53.0977 H       1  ZINC000225856071    0.1200
     42 H42       -15.9470   -1.2384   54.2131 H       1  ZINC000225856071    0.1200
     43 H43       -14.1320   -0.5046   55.7066 H       1  ZINC000225856071    0.1200
     44 H44       -11.3065   -1.7999   53.6928 H       1  ZINC000225856071    0.1200
     45 H45        -9.8249   -0.2528   52.4782 H       1  ZINC000225856071    0.1200
     46 H46        -8.9620    2.6626   53.1454 H       1  ZINC000225856071    0.0700
     47 H47        -7.5893    2.1345   54.1479 H       1  ZINC000225856071    0.0700
     48 H48        -7.9560    1.2897   52.6246 H       1  ZINC000225856071    0.0700
     49 H49        -8.9471    1.7717   56.1279 H       1  ZINC000225856071    0.1200
     50 H50       -11.3197    0.9397   57.9614 H       1  ZINC000225856071    0.0800
     51 H51       -10.6902   -0.7078   58.2017 H       1  ZINC000225856071    0.0700
     52 H52        -9.5756    0.6800   58.2038 H       1  ZINC000225856071    0.0700
     53 H53       -13.8801   -2.8600   59.4841 H       1  ZINC000225856071    0.1500
     54 H54       -14.7250   -2.0044   62.3532 H       1  ZINC000225856071    0.0700
     55 H55       -14.3407   -0.2903   62.0659 H       1  ZINC000225856071    0.0700
     56 H56       -15.1372   -1.2488   60.7950 H       1  ZINC000225856071    0.0700
@<TRIPOS>BOND
     1     1     2    1
     2     1    31    1
     3     1    32    1
     4     1    33    1
     5     2     3    1
     6     3    29   ar
     7     3     4   ar
     8     4     5   ar
     9     4    34    1
    10     5     6    1
    11     5     7   ar
    12     6    35    1
    13     6    36    1
    14     6    37    1
    15     7     8    1
    16     7    28   ar
    17     8     9    2
    18     8    10    2
    19     8    11   am
    20    11    12    1
    21    11    38    1
    22    12    13    1
    23    12    14    1
    24    12    20    1
    25    14    19   ar
    26    14    15   ar
    27    15    16   ar
    28    15    39    1
    29    16    17   ar
    30    16    40    1
    31    17    18   ar
    32    17    41    1
    33    18    19   ar
    34    18    42    1
    35    19    43    1
    36    20    26   ar
    37    20    21   ar
    38    21    22   ar
    39    21    44    1
    40    22    23   ar
    41    22    45    1
    42    23    24    1
    43    23    25   ar
    44    24    46    1
    45    24    47    1
    46    24    48    1
    47    25    26   ar
    48    25    49    1
    49    26    27    1
    50    27    50    1
    51    27    51    1
    52    27    52    1
    53    28    29   ar
    54    28    53    1
    55    29    30    1
    56    30    54    1
    57    30    55    1
    58    30    56    1
@<TRIPOS>SUBSTRUCTURE
     1 ZINC000225856071        1 TEMP              0 ****  ****    0 ROOT


##########                                Name:    ZINC001015955459
##########                DOCK_Rotatable_Bonds:                   6
##########                         Heavy_Atoms:                  24
##########                    Molecular_Weight:             347.844
##########                DOCK_Rotatable_Bonds:                   6
##########                       Formal_Charge:          -0.0200002
##########                     HBond_Acceptors:                   6
##########                        HBond_Donors:                   1
##########                         Heavy_Atoms:                  24
##########                          Grid_Score:          -31.686132
##########                     Grid_vdw_energy:          -32.140995
##########                      Grid_es_energy:            0.454863
##########           Internal_energy_repulsive:           10.464683

@<TRIPOS>MOLECULE
ZINC001015955459
 46 48 1 0 0
SMALL
USER_CHARGES


@<TRIPOS>ATOM
      1 C1         -8.4023    2.5089   53.9349 C.3     1  ZINC001015955459   -0.1500
      2 C2         -8.9543    2.2308   52.5352 C.3     1  ZINC001015955459   -0.0300
      3 C3         -8.4127    3.2751   51.5567 C.3     1  ZINC001015955459   -0.1500
      4 C4         -8.5263    0.8561   52.0904 C.2     1  ZINC001015955459    0.0600
      5 C5         -9.1641   -0.3164   52.3562 C.2     1  ZINC001015955459   -0.0800
      6 C6        -10.4051   -0.4814   53.1346 C.2     1  ZINC001015955459    0.6100
      7 O7        -10.8695    0.4619   53.7459 O.2     1  ZINC001015955459   -0.5300
      8 N8        -11.0251   -1.6776   53.1689 N.am    1  ZINC001015955459   -0.7100
      9 C9        -12.2593   -1.8411   53.9410 C.3     1  ZINC001015955459    0.1400
     10 H10       -12.7340   -0.8736   54.1043 H       1  ZINC001015955459    0.1000
     11 C11       -13.2260   -2.7957   53.2102 C.3     1  ZINC001015955459   -0.1300
     12 C12       -13.4318   -3.9785   54.1807 C.3     1  ZINC001015955459    0.0200
     13 N13       -13.1285   -3.4186   55.5229 N.3     1  ZINC001015955459   -0.4900
     14 C14       -12.7945   -4.4859   56.4754 C.3     1  ZINC001015955459    0.0800
     15 C15       -12.3923   -3.8754   57.7932 C.ar    1  ZINC001015955459   -0.1100
     16 C16       -13.3069   -3.1369   58.5203 C.ar    1  ZINC001015955459   -0.1100
     17 C17       -12.9400   -2.5806   59.7318 C.ar    1  ZINC001015955459   -0.1000
     18 C18       -11.6555   -2.7536   60.2112 C.ar    1  ZINC001015955459   -0.1100
     19 C19       -10.7380   -3.4883   59.4812 C.ar    1  ZINC001015955459   -0.0300
     20 Cl20       -9.1240   -3.7057   60.0824 Cl      1  ZINC001015955459   -0.0700
     21 C21       -11.1072   -4.0492   58.2718 C.ar    1  ZINC001015955459   -0.1000
     22 C22       -11.9600   -2.5264   55.2917 C.3     1  ZINC001015955459    0.0100
     23 N23        -8.4377   -1.3082   51.7731 N.2     1  ZINC001015955459   -0.4600
     24 C24        -7.4161   -0.7730   51.1745 C.2     1  ZINC001015955459    0.1800
     25 O25        -7.4434    0.5549   51.3561 O.3     1  ZINC001015955459   -0.1900
     26 H26        -7.3138    2.4565   53.9131 H       1  ZINC001015955459    0.0600
     27 H27        -8.7119    3.5033   54.2566 H       1  ZINC001015955459    0.0700
     28 H28        -8.7881    1.7650   54.6319 H       1  ZINC001015955459    0.0600
     29 H29       -10.0428    2.2833   52.5569 H       1  ZINC001015955459    0.1300
     30 H30        -8.8061    3.0769   50.5596 H       1  ZINC001015955459    0.0600
     31 H31        -8.7224    4.2694   51.8785 H       1  ZINC001015955459    0.0700
     32 H32        -7.3244    3.2227   51.5351 H       1  ZINC001015955459    0.0600
     33 H33       -10.6540   -2.4303   52.6823 H       1  ZINC001015955459    0.4100
     34 H34       -14.1751   -2.2966   53.0148 H       1  ZINC001015955459    0.0800
     35 H35       -12.7821   -3.1425   52.2770 H       1  ZINC001015955459    0.0700
     36 H36       -14.4631   -4.3290   54.1393 H       1  ZINC001015955459    0.0900
     37 H37       -12.7439   -4.7897   53.9428 H       1  ZINC001015955459    0.0500
     38 H38       -13.6637   -5.1270   56.6221 H       1  ZINC001015955459    0.0900
     39 H39       -11.9682   -5.0783   56.0822 H       1  ZINC001015955459    0.0900
     40 H40       -14.3095   -2.9977   58.1439 H       1  ZINC001015955459    0.1300
     41 H41       -13.6562   -2.0071   60.3015 H       1  ZINC001015955459    0.1300
     42 H42       -11.3678   -2.3151   61.1553 H       1  ZINC001015955459    0.1300
     43 H43       -10.3913   -4.6224   57.7012 H       1  ZINC001015955459    0.1300
     44 H44       -11.0419   -3.1103   55.2266 H       1  ZINC001015955459    0.0700
     45 H45       -11.8837   -1.7837   56.0859 H       1  ZINC001015955459    0.0900
     46 H46        -6.6616   -1.3132   50.6221 H       1  ZINC001015955459    0.2600
@<TRIPOS>BOND
     1     1     2    1
     2     1    26    1
     3     1    27    1
     4     1    28    1
     5     2     3    1
     6     2     4    1
     7     2    29    1
     8     3    30    1
     9     3    31    1
    10     3    32    1
    11     4    25    1
    12     4     5    2
    13     5     6    1
    14     5    23    1
    15     6     7    2
    16     6     8   am
    17     8     9    1
    18     8    33    1
    19     9    10    1
    20     9    22    1
    21     9    11    1
    22    11    12    1
    23    11    34    1
    24    11    35    1
    25    12    13    1
    26    12    36    1
    27    12    37    1
    28    13    14    1
    29    13    22    1
    30    14    15    1
    31    14    38    1
    32    14    39    1
    33    15    21   ar
    34    15    16   ar
    35    16    17   ar
    36    16    40    1
    37    17    18   ar
    38    17    41    1
    39    18    19   ar
    40    18    42    1
    41    19    20    1
    42    19    21   ar
    43    21    43    1
    44    22    44    1
    45    22    45    1
    46    23    24    2
    47    24    25    1
    48    24    46    1
@<TRIPOS>SUBSTRUCTURE
     1 ZINC001015955459        1 TEMP              0 ****  ****    0 ROOT


##########                                Name:    ZINC001039666729
##########                DOCK_Rotatable_Bonds:                   3
##########                         Heavy_Atoms:                  25
##########                    Molecular_Weight:             344.376
##########                DOCK_Rotatable_Bonds:                   3
##########                       Formal_Charge:          -0.0199998
##########                     HBond_Acceptors:                  10
##########                        HBond_Donors:                   2
##########                         Heavy_Atoms:                  25
##########                          Grid_Score:          -31.675463
##########                     Grid_vdw_energy:          -31.529016
##########                      Grid_es_energy:           -0.146446
##########           Internal_energy_repulsive:           22.190516

@<TRIPOS>MOLECULE
ZINC001039666729
 45 47 1 0 0
SMALL
USER_CHARGES


@<TRIPOS>ATOM
      1 C1        -10.7635    0.4826   54.3269 C.3     1  ZINC001039666729   -0.1100
      2 C2        -10.3762    0.0796   55.7265 C.ar    1  ZINC001039666729    0.2200
      3 C3         -9.5740    0.9057   56.4975 C.ar    1  ZINC001039666729   -0.3000
      4 C4         -9.2411    0.4974   57.7797 C.ar    1  ZINC001039666729    0.1900
      5 N5         -9.6960   -0.6615   58.2263 N.ar    1  ZINC001039666729   -0.5800
      6 C6        -10.4613   -1.4282   57.4632 C.ar    1  ZINC001039666729    0.6000
      7 N7        -10.9204   -2.6346   57.9626 N.pl3   1  ZINC001039666729   -0.5900
      8 C8        -10.1211   -3.5175   58.8660 C.3     1  ZINC001039666729    0.1200
      9 C9        -10.2304   -2.9574   60.2859 C.3     1  ZINC001039666729    0.0900
     10 N10       -11.6529   -3.0178   60.7050 N.am    1  ZINC001039666729   -0.7400
     11 C11       -12.3378   -1.8404   60.5579 C.2     1  ZINC001039666729    0.5200
     12 O12       -11.7876   -0.8538   60.1166 O.2     1  ZINC001039666729   -0.5200
     13 C13       -13.7906   -1.7990   60.9565 C.3     1  ZINC001039666729   -0.1500
     14 C14       -14.6445   -1.4480   59.7364 C.3     1  ZINC001039666729    0.1100
     15 N15       -14.3664   -2.4427   58.6683 N.am    1  ZINC001039666729   -0.6100
     16 C16       -15.0418   -3.6041   58.5617 C.2     1  ZINC001039666729    0.6100
     17 O17       -15.9200   -3.8718   59.3584 O.2     1  ZINC001039666729   -0.5200
     18 C18       -14.7148   -4.5522   57.4760 C.2     1  ZINC001039666729   -0.0400
     19 N19       -14.1772   -5.7564   57.5985 N.2     1  ZINC001039666729   -0.2500
     20 N20       -14.0489   -6.2676   56.4256 N.pl3   1  ZINC001039666729   -0.2300
     21 N21       -14.4756   -5.4618   55.5201 N.2     1  ZINC001039666729   -0.2800
     22 C22       -14.9152   -4.3674   56.0934 C.2     1  ZINC001039666729    0.0400
     23 C23       -13.2844   -2.0545   57.7266 C.3     1  ZINC001039666729    0.1100
     24 C24       -12.2731   -3.1962   57.6633 C.3     1  ZINC001039666729    0.1300
     25 N25       -10.8022   -1.0647   56.2357 N.ar    1  ZINC001039666729   -0.5700
     26 H26       -11.6913    1.0540   54.3570 H       1  ZINC001039666729    0.0800
     27 H27        -9.9733    1.0955   53.8934 H       1  ZINC001039666729    0.0800
     28 H28       -10.9063   -0.4102   53.7181 H       1  ZINC001039666729    0.0800
     29 H29        -9.2158    1.8471   56.1078 H       1  ZINC001039666729    0.1400
     30 H30        -8.6174    1.1177   58.4062 H       1  ZINC001039666729    0.1600
     31 H31       -10.5193   -4.5318   58.8378 H       1  ZINC001039666729    0.0800
     32 H32        -9.0778   -3.5211   58.5500 H       1  ZINC001039666729    0.0900
     33 H33        -9.6221   -3.5555   60.9643 H       1  ZINC001039666729    0.0800
     34 H34        -9.8872   -1.9229   60.2998 H       1  ZINC001039666729    0.1000
     35 H35       -12.0636   -3.8242   61.0543 H       1  ZINC001039666729    0.4100
     36 H36       -14.0897   -2.7742   61.3408 H       1  ZINC001039666729    0.0800
     37 H37       -13.9339   -1.0443   61.7297 H       1  ZINC001039666729    0.1100
     38 H38       -15.7003   -1.4828   60.0048 H       1  ZINC001039666729    0.1100
     39 H39       -14.3877   -0.4490   59.3837 H       1  ZINC001039666729    0.0900
     40 H40       -13.6780   -7.1461   56.2477 H       1  ZINC001039666729    0.4700
     41 H41       -15.3368   -3.5006   55.6062 H       1  ZINC001039666729    0.2100
     42 H42       -13.7051   -1.8775   56.7367 H       1  ZINC001039666729    0.0800
     43 H43       -12.7933   -1.1497   58.0845 H       1  ZINC001039666729    0.1200
     44 H44       -12.2734   -3.6342   56.6653 H       1  ZINC001039666729    0.0700
     45 H45       -12.5291   -3.9569   58.4009 H       1  ZINC001039666729    0.0900
@<TRIPOS>BOND
     1     1     2    1
     2     1    26    1
     3     1    27    1
     4     1    28    1
     5     2    25   ar
     6     2     3   ar
     7     3     4   ar
     8     3    29    1
     9     4     5   ar
    10     4    30    1
    11     5     6   ar
    12     6     7    1
    13     6    25   ar
    14     7    24    1
    15     7     8    1
    16     8     9    1
    17     8    31    1
    18     8    32    1
    19     9    10    1
    20     9    33    1
    21     9    34    1
    22    10    11   am
    23    10    35    1
    24    11    12    2
    25    11    13    1
    26    13    14    1
    27    13    36    1
    28    13    37    1
    29    14    15    1
    30    14    38    1
    31    14    39    1
    32    15    16   am
    33    15    23    1
    34    16    17    2
    35    16    18    1
    36    18    22    1
    37    18    19    2
    38    19    20    1
    39    20    21    1
    40    20    40    1
    41    21    22    2
    42    22    41    1
    43    23    24    1
    44    23    42    1
    45    23    43    1
    46    24    44    1
    47    24    45    1
@<TRIPOS>SUBSTRUCTURE
     1 ZINC001039666729        1 TEMP              0 ****  ****    0 ROOT


##########                                Name:    ZINC001272744746
##########                DOCK_Rotatable_Bonds:                   6
##########                         Heavy_Atoms:                  25
##########                    Molecular_Weight:             348.417
##########                DOCK_Rotatable_Bonds:                   6
##########                       Formal_Charge:           0.0299999
##########                     HBond_Acceptors:                   6
##########                        HBond_Donors:                   1
##########                         Heavy_Atoms:                  25
##########                          Grid_Score:          -31.659981
##########                     Grid_vdw_energy:          -31.218307
##########                      Grid_es_energy:           -0.441673
##########           Internal_energy_repulsive:           26.326149

@<TRIPOS>MOLECULE
ZINC001272744746
 50 52 1 0 0
SMALL
USER_CHARGES


@<TRIPOS>ATOM
      1 C1        -16.2553   -2.5633   58.7208 C.2     1  ZINC001272744746   -0.1700
      2 C2        -15.9949   -3.6732   58.0756 C.2     1  ZINC001272744746   -0.1700
      3 C3        -14.8732   -4.5676   58.5369 C.3     1  ZINC001272744746    0.1500
      4 N4        -13.5996   -4.0593   58.0210 N.am    1  ZINC001272744746   -0.6100
      5 C5        -12.8488   -2.9461   58.6170 C.3     1  ZINC001272744746    0.0700
      6 C6        -11.4324   -3.0474   58.0253 C.3     1  ZINC001272744746    0.1100
      7 C7        -11.6780   -3.7951   56.7020 C.3     1  ZINC001272744746   -0.1500
      8 C8        -12.9649   -4.5555   56.9440 C.2     1  ZINC001272744746    0.5200
      9 O9        -13.3684   -5.4732   56.2615 O.2     1  ZINC001272744746   -0.5200
     10 C10       -10.5272   -3.8616   58.9392 C.3     1  ZINC001272744746   -0.1000
     11 C11       -10.3187   -3.1031   60.2545 C.3     1  ZINC001272744746   -0.1200
     12 C12        -9.7499   -1.7151   59.9465 C.3     1  ZINC001272744746   -0.1200
     13 C13       -10.7123   -0.9646   59.0234 C.3     1  ZINC001272744746    0.0500
     14 N14       -10.8811   -1.7194   57.7735 N.3     1  ZINC001272744746   -0.5100
     15 C15       -11.7135   -0.9762   56.8180 C.3     1  ZINC001272744746    0.0800
     16 C16       -10.8758   -0.5673   55.6339 C.ar    1  ZINC001272744746   -0.0200
     17 C17        -9.8279    0.3178   55.8036 C.ar    1  ZINC001272744746   -0.1700
     18 C18        -9.0557    0.6964   54.7186 C.ar    1  ZINC001272744746    0.1200
     19 F19        -8.0318    1.5618   54.8867 F       1  ZINC001272744746   -0.1200
     20 C20        -9.3334    0.1863   53.4589 C.ar    1  ZINC001272744746    0.0400
     21 O21        -8.5757    0.5562   52.3912 O.3     1  ZINC001272744746   -0.4700
     22 C22       -10.3880   -0.7048   53.2901 C.ar    1  ZINC001272744746    0.1300
     23 O23       -10.6640   -1.2079   52.0572 O.3     1  ZINC001272744746   -0.3000
     24 C24       -11.7572   -2.1230   51.9597 C.3     1  ZINC001272744746    0.0200
     25 C25       -11.1538   -1.0829   54.3815 C.ar    1  ZINC001272744746   -0.1800
     26 H26       -15.6662   -2.2892   59.5835 H       1  ZINC001272744746    0.1000
     27 H27       -17.0563   -1.9201   58.3876 H       1  ZINC001272744746    0.1000
     28 H28       -16.5840   -3.9473   57.2128 H       1  ZINC001272744746    0.1100
     29 H29       -14.8442   -4.5816   59.6264 H       1  ZINC001272744746    0.0900
     30 H30       -15.0382   -5.5788   58.1648 H       1  ZINC001272744746    0.0800
     31 H31       -13.3047   -1.9943   58.3447 H       1  ZINC001272744746    0.0700
     32 H32       -12.8134   -3.0521   59.7013 H       1  ZINC001272744746    0.0900
     33 H33       -11.7960   -3.0886   55.8803 H       1  ZINC001272744746    0.1100
     34 H34       -10.8613   -4.4874   56.4973 H       1  ZINC001272744746    0.1100
     35 H35       -10.9913   -4.8261   59.1453 H       1  ZINC001272744746    0.0700
     36 H36        -9.5645   -4.0174   58.4527 H       1  ZINC001272744746    0.0800
     37 H37       -11.2730   -2.9997   60.7710 H       1  ZINC001272744746    0.0600
     38 H38        -9.6192   -3.6520   60.8849 H       1  ZINC001272744746    0.0700
     39 H39        -9.6282   -1.1578   60.8753 H       1  ZINC001272744746    0.0700
     40 H40        -8.7824   -1.8195   59.4554 H       1  ZINC001272744746    0.0700
     41 H41       -11.6787   -0.8569   59.5161 H       1  ZINC001272744746    0.0400
     42 H42       -10.3066    0.0221   58.8000 H       1  ZINC001272744746    0.0900
     43 H43       -12.5339   -1.6101   56.4812 H       1  ZINC001272744746    0.1000
     44 H44       -12.1168   -0.0869   57.3024 H       1  ZINC001272744746    0.0600
     45 H45        -9.6114    0.7153   56.7842 H       1  ZINC001272744746    0.1400
     46 H46        -7.9097    1.2271   52.5950 H       1  ZINC001272744746    0.3900
     47 H47       -12.6732   -1.6309   52.2869 H       1  ZINC001272744746    0.0600
     48 H48       -11.8687   -2.4472   50.9250 H       1  ZINC001272744746    0.1100
     49 H49       -11.5639   -2.9889   52.5928 H       1  ZINC001272744746    0.0600
     50 H50       -11.9730   -1.7747   54.2524 H       1  ZINC001272744746    0.1400
@<TRIPOS>BOND
     1     1     2    2
     2     1    26    1
     3     1    27    1
     4     2     3    1
     5     2    28    1
     6     3     4    1
     7     3    29    1
     8     3    30    1
     9     4     8   am
    10     4     5    1
    11     5     6    1
    12     5    31    1
    13     5    32    1
    14     6    14    1
    15     6     7    1
    16     6    10    1
    17     7     8    1
    18     7    33    1
    19     7    34    1
    20     8     9    2
    21    10    11    1
    22    10    35    1
    23    10    36    1
    24    11    12    1
    25    11    37    1
    26    11    38    1
    27    12    13    1
    28    12    39    1
    29    12    40    1
    30    13    14    1
    31    13    41    1
    32    13    42    1
    33    14    15    1
    34    15    16    1
    35    15    43    1
    36    15    44    1
    37    16    25   ar
    38    16    17   ar
    39    17    18   ar
    40    17    45    1
    41    18    19    1
    42    18    20   ar
    43    20    21    1
    44    20    22   ar
    45    21    46    1
    46    22    23    1
    47    22    25   ar
    48    23    24    1
    49    24    47    1
    50    24    48    1
    51    24    49    1
    52    25    50    1
@<TRIPOS>SUBSTRUCTURE
     1 ZINC001272744746        1 TEMP              0 ****  ****    0 ROOT


##########                                Name:    ZINC001176298561
##########                DOCK_Rotatable_Bonds:                   6
##########                         Heavy_Atoms:                  23
##########                    Molecular_Weight:             337.781
##########                DOCK_Rotatable_Bonds:                   6
##########                       Formal_Charge:          -0.0100003
##########                     HBond_Acceptors:                   7
##########                        HBond_Donors:                   2
##########                         Heavy_Atoms:                  23
##########                          Grid_Score:          -31.638384
##########                     Grid_vdw_energy:          -30.110216
##########                      Grid_es_energy:           -1.528168
##########           Internal_energy_repulsive:            9.829542

@<TRIPOS>MOLECULE
ZINC001176298561
 40 41 1 0 0
SMALL
USER_CHARGES


@<TRIPOS>ATOM
      1 C1         -9.7991   -0.7870   52.3559 C.3     1  ZINC001176298561   -0.1700
      2 C2        -11.2732   -1.1259   52.1253 C.3     1  ZINC001176298561    0.1100
      3 N3        -11.7895   -1.8683   53.2778 N.am    1  ZINC001176298561   -0.6100
      4 C4        -12.3885   -1.1484   54.4044 C.3     1  ZINC001176298561    0.0900
      5 C5        -13.8826   -0.9462   54.1441 C.3     1  ZINC001176298561   -0.1800
      6 C6        -11.7136   -3.2137   53.3016 C.2     1  ZINC001176298561    0.5600
      7 O7        -11.2168   -3.8111   52.3669 O.2     1  ZINC001176298561   -0.5300
      8 C8        -12.2348   -3.9632   54.4650 C.ar    1  ZINC001176298561   -0.0600
      9 C9        -13.4477   -4.6470   54.3704 C.ar    1  ZINC001176298561   -0.1900
     10 C10       -13.9330   -5.3471   55.4597 C.ar    1  ZINC001176298561    0.1400
     11 F11       -15.1071   -6.0089   55.3665 F       1  ZINC001176298561   -0.1300
     12 C12       -13.2188   -5.3720   56.6450 C.ar    1  ZINC001176298561   -0.1800
     13 C13       -12.0098   -4.6935   56.7472 C.ar    1  ZINC001176298561    0.2400
     14 N14       -11.2924   -4.7218   57.9453 N.pl3   1  ZINC001176298561   -0.6700
     15 C15       -11.0016   -3.5275   58.6155 C.2     1  ZINC001176298561    0.0400
     16 C16       -11.8791   -2.4786   58.5730 C.2     1  ZINC001176298561   -0.0300
     17 C17       -11.5636   -1.2932   59.2539 C.2     1  ZINC001176298561   -0.1300
     18 Cl18      -12.6631    0.0497   59.2129 Cl      1  ZINC001176298561   -0.0400
     19 C19       -10.4029   -1.1963   59.9427 C.2     1  ZINC001176298561    0.1400
     20 N20        -9.5291   -2.2387   59.9858 N.am    1  ZINC001176298561   -0.6000
     21 C21        -9.8018   -3.3932   59.3482 C.2     1  ZINC001176298561    0.5100
     22 O22        -9.0084   -4.3196   59.3962 O.2     1  ZINC001176298561   -0.5200
     23 C23       -11.5129   -3.9935   55.6579 C.ar    1  ZINC001176298561   -0.1300
     24 H24        -9.4149   -0.2345   51.4984 H       1  ZINC001176298561    0.0700
     25 H25        -9.7027   -0.1769   53.2539 H       1  ZINC001176298561    0.0600
     26 H26        -9.2295   -1.7081   52.4795 H       1  ZINC001176298561    0.0600
     27 H27       -11.8427   -0.2048   52.0017 H       1  ZINC001176298561    0.0800
     28 H28       -11.3695   -1.7360   51.2271 H       1  ZINC001176298561    0.0900
     29 H29       -12.2540   -1.7271   55.3182 H       1  ZINC001176298561    0.0900
     30 H30       -11.9042   -0.1781   54.5143 H       1  ZINC001176298561    0.0800
     31 H31       -14.2971   -1.8459   53.6892 H       1  ZINC001176298561    0.0700
     32 H32       -14.3921   -0.7478   55.0870 H       1  ZINC001176298561    0.0700
     33 H33       -14.0229   -0.1008   53.4705 H       1  ZINC001176298561    0.0600
     34 H34       -14.0074   -4.6291   53.4470 H       1  ZINC001176298561    0.1500
     35 H35       -13.6022   -5.9200   57.4931 H       1  ZINC001176298561    0.1300
     36 H36       -10.9955   -5.5690   58.3129 H       1  ZINC001176298561    0.4200
     37 H37       -12.8039   -2.5622   58.0215 H       1  ZINC001176298561    0.1500
     38 H38       -10.1669   -0.2805   60.4643 H       1  ZINC001176298561    0.1800
     39 H39        -8.7018   -2.1504   60.4846 H       1  ZINC001176298561    0.4300
     40 H40       -10.5737   -3.4659   55.7360 H       1  ZINC001176298561    0.1400
@<TRIPOS>BOND
     1     1     2    1
     2     1    24    1
     3     1    25    1
     4     1    26    1
     5     2     3    1
     6     2    27    1
     7     2    28    1
     8     3     4    1
     9     3     6   am
    10     4     5    1
    11     4    29    1
    12     4    30    1
    13     5    31    1
    14     5    32    1
    15     5    33    1
    16     6     7    2
    17     6     8    1
    18     8    23   ar
    19     8     9   ar
    20     9    10   ar
    21     9    34    1
    22    10    11    1
    23    10    12   ar
    24    12    13   ar
    25    12    35    1
    26    13    14    1
    27    13    23   ar
    28    14    15    1
    29    14    36    1
    30    15    21    1
    31    15    16    2
    32    16    17    1
    33    16    37    1
    34    17    18    1
    35    17    19    2
    36    19    20    1
    37    19    38    1
    38    20    21   am
    39    20    39    1
    40    21    22    2
    41    23    40    1
@<TRIPOS>SUBSTRUCTURE
     1 ZINC001176298561        1 TEMP              0 ****  ****    0 ROOT


##########                                Name:    ZINC000581017854
##########                DOCK_Rotatable_Bonds:                   6
##########                         Heavy_Atoms:                  24
##########                    Molecular_Weight:             330.334
##########                DOCK_Rotatable_Bonds:                   6
##########                       Formal_Charge:           0.0099998
##########                     HBond_Acceptors:                   6
##########                        HBond_Donors:                   2
##########                         Heavy_Atoms:                  24
##########                          Grid_Score:          -31.606762
##########                     Grid_vdw_energy:          -29.379128
##########                      Grid_es_energy:           -2.227633
##########           Internal_energy_repulsive:           11.104642

@<TRIPOS>MOLECULE
ZINC000581017854
 40 42 1 0 0
SMALL
USER_CHARGES


@<TRIPOS>ATOM
      1 C1        -14.6536   -5.7119   56.9964 C.3     1  ZINC000581017854   -0.1600
      2 C2        -13.3207   -5.1773   56.4685 C.3     1  ZINC000581017854    0.1500
      3 H3        -12.6961   -6.0111   56.1480 H       1  ZINC000581017854    0.1100
      4 C4        -13.5785   -4.2473   55.2813 C.3     1  ZINC000581017854    0.0500
      5 O5        -12.3627   -3.5898   54.9185 O.3     1  ZINC000581017854   -0.3100
      6 C6        -12.4341   -2.6647   53.9255 C.ar    1  ZINC000581017854    0.1600
      7 C7        -13.6505   -2.3914   53.3171 C.ar    1  ZINC000581017854   -0.2200
      8 C8        -13.7219   -1.4505   52.3076 C.ar    1  ZINC000581017854   -0.0500
      9 C9        -12.5826   -0.7814   51.9025 C.ar    1  ZINC000581017854   -0.1900
     10 C10       -11.3662   -1.0521   52.5073 C.ar    1  ZINC000581017854    0.1400
     11 F11       -10.2536   -0.3969   52.1098 F       1  ZINC000581017854   -0.1300
     12 C12       -11.2918   -1.9885   53.5229 C.ar    1  ZINC000581017854   -0.1900
     13 N13       -12.6372   -4.4352   57.5307 N.am    1  ZINC000581017854   -0.7300
     14 C14       -11.3572   -4.7239   57.8381 C.2     1  ZINC000581017854    0.5900
     15 O15       -10.7697   -5.6018   57.2343 O.2     1  ZINC000581017854   -0.5400
     16 C16       -10.6711   -3.9786   58.9021 C.2     1  ZINC000581017854   -0.2200
     17 C17        -9.3598   -4.0871   59.2593 C.2     1  ZINC000581017854    0.1100
     18 N18        -9.0917   -3.2398   60.2824 N.pl3   1  ZINC000581017854   -0.5700
     19 C19       -10.2260   -2.5388   60.6369 C.ar    1  ZINC000581017854    0.1100
     20 C20       -10.4836   -1.5708   61.6016 C.ar    1  ZINC000581017854   -0.1600
     21 C21       -11.7517   -1.0399   61.7224 C.ar    1  ZINC000581017854    0.1200
     22 F22       -11.9974   -0.0994   62.6607 F       1  ZINC000581017854   -0.1400
     23 C23       -12.7777   -1.4636   60.8871 C.ar    1  ZINC000581017854   -0.1700
     24 C24       -12.5400   -2.4216   59.9260 C.ar    1  ZINC000581017854   -0.0300
     25 C25       -11.2636   -2.9609   59.7901 C.ar    1  ZINC000581017854   -0.0700
     26 H26       -15.1622   -6.2640   56.2060 H       1  ZINC000581017854    0.0700
     27 H27       -14.4700   -6.3744   57.8421 H       1  ZINC000581017854    0.0700
     28 H28       -15.2782   -4.8781   57.3169 H       1  ZINC000581017854    0.0700
     29 H29       -13.9426   -4.8304   54.4354 H       1  ZINC000581017854    0.0700
     30 H30       -14.3253   -3.5031   55.5581 H       1  ZINC000581017854    0.0800
     31 H31       -14.5415   -2.9140   53.6323 H       1  ZINC000581017854    0.1400
     32 H32       -14.6692   -1.2382   51.8343 H       1  ZINC000581017854    0.1400
     33 H33       -12.6407   -0.0467   51.1130 H       1  ZINC000581017854    0.1400
     34 H34       -10.3438   -2.1998   53.9951 H       1  ZINC000581017854    0.1400
     35 H35       -13.1059   -3.7361   58.0129 H       1  ZINC000581017854    0.4000
     36 H36        -8.6425   -4.7487   58.7965 H       1  ZINC000581017854    0.1800
     37 H37        -8.2248   -3.1405   60.7062 H       1  ZINC000581017854    0.4200
     38 H38        -9.6925   -1.2353   62.2558 H       1  ZINC000581017854    0.1400
     39 H39       -13.7658   -1.0405   60.9919 H       1  ZINC000581017854    0.1400
     40 H40       -13.3393   -2.7497   59.2780 H       1  ZINC000581017854    0.1500
@<TRIPOS>BOND
     1     1     2    1
     2     1    26    1
     3     1    27    1
     4     1    28    1
     5     2     3    1
     6     2     4    1
     7     2    13    1
     8     4     5    1
     9     4    29    1
    10     4    30    1
    11     5     6    1
    12     6    12   ar
    13     6     7   ar
    14     7     8   ar
    15     7    31    1
    16     8     9   ar
    17     8    32    1
    18     9    10   ar
    19     9    33    1
    20    10    11    1
    21    10    12   ar
    22    12    34    1
    23    13    14   am
    24    13    35    1
    25    14    15    2
    26    14    16    1
    27    16    25    1
    28    16    17    2
    29    17    18    1
    30    17    36    1
    31    18    19    1
    32    18    37    1
    33    19    25   ar
    34    19    20   ar
    35    20    21   ar
    36    20    38    1
    37    21    22    1
    38    21    23   ar
    39    23    24   ar
    40    23    39    1
    41    24    25   ar
    42    24    40    1
@<TRIPOS>SUBSTRUCTURE
     1 ZINC000581017854        1 TEMP              0 ****  ****    0 ROOT


##########                                Name:    ZINC000750807956
##########                DOCK_Rotatable_Bonds:                  11
##########                         Heavy_Atoms:                  26
##########                    Molecular_Weight:             368.473
##########                DOCK_Rotatable_Bonds:                  11
##########                       Formal_Charge:        -8.12113e-07
##########                     HBond_Acceptors:                   7
##########                        HBond_Donors:                   1
##########                         Heavy_Atoms:                  26
##########                          Grid_Score:          -31.578663
##########                     Grid_vdw_energy:          -30.648762
##########                      Grid_es_energy:           -0.929902
##########           Internal_energy_repulsive:           96.198524

@<TRIPOS>MOLECULE
ZINC000750807956
 58 59 1 0 0
SMALL
USER_CHARGES


@<TRIPOS>ATOM
      1 C1        -12.8056   -4.6706   56.9572 C.3     1  ZINC000750807956   -0.1500
      2 C2        -11.4574   -4.4158   57.6343 C.3     1  ZINC000750807956    0.0700
      3 O3        -11.5215   -3.1777   58.3900 O.3     1  ZINC000750807956   -0.3600
      4 C4        -10.4643   -2.8790   59.1613 C.2     1  ZINC000750807956    0.4800
      5 O5         -9.4068   -3.4338   58.9778 O.2     1  ZINC000750807956   -0.4900
      6 C6        -10.5964   -1.8517   60.2559 C.3     1  ZINC000750807956    0.1600
      7 H7         -9.8546   -2.0459   61.0307 H       1  ZINC000750807956    0.1000
      8 C8        -12.0018   -1.9239   60.8611 C.3     1  ZINC000750807956   -0.1300
      9 C9        -12.1759   -0.7894   61.8734 C.3     1  ZINC000750807956   -0.1200
     10 C10       -12.0241    0.5578   61.1636 C.3     1  ZINC000750807956   -0.1400
     11 C11       -10.6189    0.6581   60.5619 C.3     1  ZINC000750807956    0.1100
     12 N12       -10.3865   -0.5085   59.6988 N.am    1  ZINC000750807956   -0.6100
     13 C13        -9.9937   -0.3488   58.4196 C.2     1  ZINC000750807956    0.5100
     14 O14        -9.8052   -1.3196   57.7174 O.2     1  ZINC000750807956   -0.5000
     15 C15        -9.7885    1.0360   57.8616 C.3     1  ZINC000750807956   -0.1400
     16 C16        -9.2429    0.9356   56.4356 C.3     1  ZINC000750807956    0.2100
     17 H17        -8.4624    0.1758   56.3980 H       1  ZINC000750807956    0.1000
     18 N18        -8.6850    2.2292   56.0341 N.am    1  ZINC000750807956   -0.7000
     19 C19        -7.4263    2.5586   56.3857 C.2     1  ZINC000750807956    0.6600
     20 O20        -6.7538    1.7820   57.0346 O.2     1  ZINC000750807956   -0.5600
     21 O21        -6.9141    3.7482   56.0181 O.3     1  ZINC000750807956   -0.3700
     22 C22        -5.5626    4.0478   56.4565 C.3     1  ZINC000750807956    0.1400
     23 C23        -5.1611    5.4376   55.9582 C.3     1  ZINC000750807956   -0.1800
     24 C24        -5.5038    4.0176   57.9851 C.3     1  ZINC000750807956   -0.1400
     25 C25        -4.5989    3.0042   55.8883 C.3     1  ZINC000750807956   -0.1800
     26 C26       -10.3758    0.5506   55.4820 C.3     1  ZINC000750807956   -0.1800
     27 C27       -10.7244    1.5361   54.3648 C.3     1  ZINC000750807956   -0.1700
     28 C28       -10.0016    0.2288   54.0339 C.3     1  ZINC000750807956   -0.1800
     29 H29       -13.0355   -3.8451   56.2835 H       1  ZINC000750807956    0.0600
     30 H30       -12.7574   -5.6000   56.3899 H       1  ZINC000750807956    0.0800
     31 H31       -13.5843   -4.7479   57.7160 H       1  ZINC000750807956    0.0700
     32 H32       -11.2275   -5.2413   58.3080 H       1  ZINC000750807956    0.0700
     33 H33       -10.6787   -4.3384   56.8755 H       1  ZINC000750807956    0.0600
     34 H34       -12.7444   -1.8222   60.0696 H       1  ZINC000750807956    0.0800
     35 H35       -12.1332   -2.8826   61.3627 H       1  ZINC000750807956    0.0800
     36 H36       -13.1665   -0.8533   62.3236 H       1  ZINC000750807956    0.0800
     37 H37       -11.4174   -0.8775   62.6514 H       1  ZINC000750807956    0.0700
     38 H38       -12.7664    0.6362   60.3692 H       1  ZINC000750807956    0.0700
     39 H39       -12.1713    1.3655   61.8806 H       1  ZINC000750807956    0.0800
     40 H40       -10.5383    1.5711   59.9721 H       1  ZINC000750807956    0.0900
     41 H41        -9.8788    0.6711   61.3621 H       1  ZINC000750807956    0.0800
     42 H42       -10.7399    1.5677   57.8500 H       1  ZINC000750807956    0.1200
     43 H43        -9.0772    1.5773   58.4854 H       1  ZINC000750807956    0.1100
     44 H44        -9.2214    2.8488   55.5150 H       1  ZINC000750807956    0.4000
     45 H45        -5.8476    6.1811   56.3629 H       1  ZINC000750807956    0.0600
     46 H46        -4.1466    5.6624   56.2872 H       1  ZINC000750807956    0.0700
     47 H47        -5.2029    5.4591   54.8692 H       1  ZINC000750807956    0.0900
     48 H48        -5.7898    3.0275   58.3402 H       1  ZINC000750807956    0.0700
     49 H49        -4.4893    4.2425   58.3143 H       1  ZINC000750807956    0.0800
     50 H50        -6.1904    4.7611   58.3900 H       1  ZINC000750807956    0.0700
     51 H51        -4.6408    3.0257   54.7993 H       1  ZINC000750807956    0.0900
     52 H52        -3.5844    3.2291   56.2174 H       1  ZINC000750807956    0.0700
     53 H53        -4.8849    2.0141   56.2433 H       1  ZINC000750807956    0.0600
     54 H54       -11.1939   -0.0150   55.9281 H       1  ZINC000750807956    0.1100
     55 H55       -11.7720    1.6192   54.0756 H       1  ZINC000750807956    0.0900
     56 H56       -10.1465    2.4587   54.3092 H       1  ZINC000750807956    0.0900
     57 H57        -8.9482    0.2914   53.7605 H       1  ZINC000750807956    0.1200
     58 H58       -10.5737   -0.5482   53.5270 H       1  ZINC000750807956    0.0900
@<TRIPOS>BOND
     1     1     2    1
     2     1    29    1
     3     1    30    1
     4     1    31    1
     5     2     3    1
     6     2    32    1
     7     2    33    1
     8     3     4    1
     9     4     5    2
    10     4     6    1
    11     6     7    1
    12     6    12    1
    13     6     8    1
    14     8     9    1
    15     8    34    1
    16     8    35    1
    17     9    10    1
    18     9    36    1
    19     9    37    1
    20    10    11    1
    21    10    38    1
    22    10    39    1
    23    11    12    1
    24    11    40    1
    25    11    41    1
    26    12    13   am
    27    13    14    2
    28    13    15    1
    29    15    16    1
    30    15    42    1
    31    15    43    1
    32    16    17    1
    33    16    18    1
    34    16    26    1
    35    18    19   am
    36    18    44    1
    37    19    20    2
    38    19    21    1
    39    21    22    1
    40    22    23    1
    41    22    24    1
    42    22    25    1
    43    23    45    1
    44    23    46    1
    45    23    47    1
    46    24    48    1
    47    24    49    1
    48    24    50    1
    49    25    51    1
    50    25    52    1
    51    25    53    1
    52    26    28    1
    53    26    27    1
    54    26    54    1
    55    27    28    1
    56    27    55    1
    57    27    56    1
    58    28    57    1
    59    28    58    1
@<TRIPOS>SUBSTRUCTURE
     1 ZINC000750807956        1 TEMP              0 ****  ****    0 ROOT


##########                                Name:    ZINC000291574087
##########                DOCK_Rotatable_Bonds:                   8
##########                         Heavy_Atoms:                  23
##########                    Molecular_Weight:             387.249
##########                DOCK_Rotatable_Bonds:                   8
##########                       Formal_Charge:          -0.0400007
##########                     HBond_Acceptors:                   6
##########                        HBond_Donors:                   2
##########                         Heavy_Atoms:                  23
##########                          Grid_Score:          -31.566805
##########                     Grid_vdw_energy:          -31.525391
##########                      Grid_es_energy:           -0.041415
##########           Internal_energy_repulsive:           27.999691

@<TRIPOS>MOLECULE
ZINC000291574087
 43 44 1 0 0
SMALL
USER_CHARGES


@<TRIPOS>ATOM
      1 C1        -14.7217   -2.1616   53.2513 C.3     1  ZINC000291574087    0.0200
      2 O2        -13.7174   -2.9521   52.6121 O.3     1  ZINC000291574087   -0.3700
      3 C3        -12.4245   -2.8447   53.2112 C.3     1  ZINC000291574087    0.1400
      4 C4        -11.3576   -3.2743   52.2022 C.3     1  ZINC000291574087   -0.1500
      5 C5        -12.3560   -3.7502   54.4425 C.3     1  ZINC000291574087    0.0900
      6 N6        -11.8888   -2.9743   55.5939 N.am    1  ZINC000291574087   -0.6900
      7 C7        -11.5580   -3.6018   56.7400 C.2     1  ZINC000291574087    0.5100
      8 O8        -11.6486   -4.8094   56.8185 O.2     1  ZINC000291574087   -0.5100
      9 C9        -11.0800   -2.8109   57.9131 C.2     1  ZINC000291574087    0.5100
     10 O10       -10.4911   -1.7637   57.7399 O.2     1  ZINC000291574087   -0.4900
     11 N11       -11.3026   -3.2599   59.1642 N.am    1  ZINC000291574087   -0.6400
     12 C12       -10.8549   -2.5192   60.2629 C.ar    1  ZINC000291574087    0.1300
     13 C13       -11.6160   -1.4639   60.7472 C.ar    1  ZINC000291574087   -0.1000
     14 C14       -11.1718   -0.7342   61.8330 C.ar    1  ZINC000291574087   -0.0400
     15 C15       -11.9980    0.4112   62.3584 C.3     1  ZINC000291574087   -0.1300
     16 C16        -9.9698   -1.0536   62.4388 C.ar    1  ZINC000291574087   -0.0900
     17 Br17       -9.3673   -0.0521   63.9254 Br      1  ZINC000291574087   -0.0300
     18 C18        -9.2075   -2.1047   61.9598 C.ar    1  ZINC000291574087   -0.1000
     19 C19        -9.6485   -2.8421   60.8767 C.ar    1  ZINC000291574087    0.0700
     20 F20        -8.9046   -3.8682   60.4088 F       1  ZINC000291574087   -0.1300
     21 C21       -12.1755   -1.3944   53.6301 C.3     1  ZINC000291574087   -0.1900
     22 C22       -10.8212   -0.7785   53.2734 C.3     1  ZINC000291574087   -0.1700
     23 C23       -12.0808   -0.3449   52.5209 C.3     1  ZINC000291574087   -0.1600
     24 H24       -15.6733   -2.2983   52.7376 H       1  ZINC000291574087    0.0900
     25 H25       -14.8220   -2.4731   54.2911 H       1  ZINC000291574087    0.0400
     26 H26       -14.4358   -1.1105   53.2128 H       1  ZINC000291574087    0.0500
     27 H27       -11.4064   -2.6292   51.3249 H       1  ZINC000291574087    0.0700
     28 H28       -10.3715   -3.1923   52.6591 H       1  ZINC000291574087    0.0800
     29 H29       -11.5350   -4.3075   51.9037 H       1  ZINC000291574087    0.0700
     30 H30       -13.3470   -4.1523   54.6534 H       1  ZINC000291574087    0.0900
     31 H31       -11.6639   -4.5705   54.2523 H       1  ZINC000291574087    0.0800
     32 H32       -11.8175   -2.0089   55.5315 H       1  ZINC000291574087    0.4200
     33 H33       -11.7733   -4.0966   59.3028 H       1  ZINC000291574087    0.4300
     34 H34       -12.5546   -1.2134   60.2753 H       1  ZINC000291574087    0.1600
     35 H35       -12.6872    0.0433   63.1185 H       1  ZINC000291574087    0.0800
     36 H36       -11.3408    1.1622   62.7969 H       1  ZINC000291574087    0.0800
     37 H37       -12.5637    0.8566   61.5401 H       1  ZINC000291574087    0.0800
     38 H38        -8.2694   -2.3514   62.4346 H       1  ZINC000291574087    0.1500
     39 H39       -12.6341   -1.0917   54.5716 H       1  ZINC000291574087    0.1100
     40 H40       -10.3883   -0.0706   53.9802 H       1  ZINC000291574087    0.1000
     41 H41       -10.1075   -1.4066   52.7402 H       1  ZINC000291574087    0.1000
     42 H42       -12.1958   -0.6876   51.4926 H       1  ZINC000291574087    0.1000
     43 H43       -12.4766    0.6483   52.7327 H       1  ZINC000291574087    0.1000
@<TRIPOS>BOND
     1     1     2    1
     2     1    24    1
     3     1    25    1
     4     1    26    1
     5     2     3    1
     6     3     4    1
     7     3     5    1
     8     3    21    1
     9     4    27    1
    10     4    28    1
    11     4    29    1
    12     5     6    1
    13     5    30    1
    14     5    31    1
    15     6     7   am
    16     6    32    1
    17     7     8    2
    18     7     9    1
    19     9    10    2
    20     9    11   am
    21    11    12    1
    22    11    33    1
    23    12    19   ar
    24    12    13   ar
    25    13    14   ar
    26    13    34    1
    27    14    15    1
    28    14    16   ar
    29    15    35    1
    30    15    36    1
    31    15    37    1
    32    16    17    1
    33    16    18   ar
    34    18    19   ar
    35    18    38    1
    36    19    20    1
    37    21    23    1
    38    21    22    1
    39    21    39    1
    40    22    23    1
    41    22    40    1
    42    22    41    1
    43    23    42    1
    44    23    43    1
@<TRIPOS>SUBSTRUCTURE
     1 ZINC000291574087        1 TEMP              0 ****  ****    0 ROOT


##########                                Name:    ZINC000898967786
##########                DOCK_Rotatable_Bonds:                   5
##########                         Heavy_Atoms:                  25
##########                    Molecular_Weight:             356.448
##########                DOCK_Rotatable_Bonds:                   5
##########                       Formal_Charge:        -2.38419e-07
##########                     HBond_Acceptors:                   7
##########                        HBond_Donors:                   1
##########                         Heavy_Atoms:                  25
##########                          Grid_Score:          -31.551424
##########                     Grid_vdw_energy:          -31.814215
##########                      Grid_es_energy:            0.262791
##########           Internal_energy_repulsive:           10.931702

@<TRIPOS>MOLECULE
ZINC000898967786
 45 48 1 0 0
SMALL
USER_CHARGES


@<TRIPOS>ATOM
      1 C1        -13.4170   -0.0805   52.8860 C.3     1  ZINC000898967786   -0.0800
      2 C2        -11.9545   -0.0305   52.5258 C.2     1  ZINC000898967786    0.0900
      3 C3        -11.1638   -1.1005   52.2907 C.2     1  ZINC000898967786   -0.1000
      4 C4        -11.5794   -2.5480   52.3405 C.3     1  ZINC000898967786    0.2200
      5 N5        -11.6332   -2.9929   53.7353 N.am    1  ZINC000898967786   -0.7400
      6 C6        -12.5148   -3.9426   54.1063 C.2     1  ZINC000898967786    0.7100
      7 O7        -13.2654   -4.4300   53.2834 O.2     1  ZINC000898967786   -0.5800
      8 N8        -12.5642   -4.3518   55.3895 N.am    1  ZINC000898967786   -0.6300
      9 C9        -13.5181   -5.3870   55.8182 C.3     1  ZINC000898967786    0.0900
     10 C10       -14.2723   -4.8699   57.0484 C.3     1  ZINC000898967786    0.0500
     11 O11       -13.3290   -4.4308   58.0287 O.3     1  ZINC000898967786   -0.3700
     12 C12       -12.5102   -3.3382   57.6049 C.3     1  ZINC000898967786    0.1400
     13 H13       -13.1434   -2.4987   57.3178 H       1  ZINC000898967786    0.0700
     14 C14       -11.6029   -2.9215   58.7337 C.2     1  ZINC000898967786   -0.1100
     15 C15       -11.9793   -2.9713   60.0124 C.2     1  ZINC000898967786   -0.1800
     16 S16       -10.6642   -2.4103   61.0367 S.3     1  ZINC000898967786    0.1100
     17 C17        -9.6470   -2.1314   59.6291 C.2     1  ZINC000898967786   -0.2100
     18 C18       -10.3138   -2.4636   58.5226 C.2     1  ZINC000898967786   -0.1300
     19 C19       -11.6618   -3.7809   56.4020 C.3     1  ZINC000898967786    0.0900
     20 N20        -9.9150   -0.6236   51.9984 N.pl3   1  ZINC000898967786   -0.3500
     21 C21        -8.7401   -1.2433   51.6847 C.2     1  ZINC000898967786    0.0600
     22 C22        -7.6275   -0.5213   51.4356 C.2     1  ZINC000898967786   -0.1400
     23 C23        -7.6646    0.8816   51.4964 C.2     1  ZINC000898967786   -0.1000
     24 C24        -8.8291    1.5120   51.8078 C.2     1  ZINC000898967786   -0.0800
     25 C25        -9.9825    0.7439   52.0649 C.2     1  ZINC000898967786    0.2400
     26 N26       -11.2257    1.0786   52.3803 N.2     1  ZINC000898967786   -0.4900
     27 H27       -14.0162   -0.0608   51.9756 H       1  ZINC000898967786    0.0800
     28 H28       -13.6242   -0.9974   53.4377 H       1  ZINC000898967786    0.0700
     29 H29       -13.6684    0.7808   53.5050 H       1  ZINC000898967786    0.0800
     30 H30       -12.5637   -2.6594   51.8855 H       1  ZINC000898967786    0.1000
     31 H31       -10.8559   -3.1529   51.7939 H       1  ZINC000898967786    0.0700
     32 H32       -11.0344   -2.6040   54.3919 H       1  ZINC000898967786    0.4000
     33 H33       -14.2244   -5.5912   55.0135 H       1  ZINC000898967786    0.1100
     34 H34       -12.9792   -6.2992   56.0745 H       1  ZINC000898967786    0.0800
     35 H35       -14.9119   -4.0359   56.7594 H       1  ZINC000898967786    0.0600
     36 H36       -14.8833   -5.6711   57.4643 H       1  ZINC000898967786    0.1100
     37 H37       -12.9441   -3.3047   60.3649 H       1  ZINC000898967786    0.1700
     38 H38        -8.6356   -1.7537   59.6568 H       1  ZINC000898967786    0.1700
     39 H39        -9.8833   -2.3743   57.5362 H       1  ZINC000898967786    0.1400
     40 H40       -10.9370   -4.5303   56.7199 H       1  ZINC000898967786    0.0800
     41 H41       -11.1407   -2.9199   55.9834 H       1  ZINC000898967786    0.0900
     42 H42        -8.7004   -2.3215   51.6359 H       1  ZINC000898967786    0.1600
     43 H43        -6.7043   -1.0244   51.1885 H       1  ZINC000898967786    0.1500
     44 H44        -6.7726    1.4571   51.2972 H       1  ZINC000898967786    0.1500
     45 H45        -8.8693    2.5901   51.8578 H       1  ZINC000898967786    0.1500
@<TRIPOS>BOND
     1     1     2    1
     2     1    27    1
     3     1    28    1
     4     1    29    1
     5     2    26    1
     6     2     3    2
     7     3     4    1
     8     3    20    1
     9     4     5    1
    10     4    30    1
    11     4    31    1
    12     5     6   am
    13     5    32    1
    14     6     7    2
    15     6     8   am
    16     8    19    1
    17     8     9    1
    18     9    10    1
    19     9    33    1
    20     9    34    1
    21    10    11    1
    22    10    35    1
    23    10    36    1
    24    11    12    1
    25    12    13    1
    26    12    14    1
    27    12    19    1
    28    14    18    1
    29    14    15    2
    30    15    16    1
    31    15    37    1
    32    16    17    1
    33    17    18    2
    34    17    38    1
    35    18    39    1
    36    19    40    1
    37    19    41    1
    38    20    25    1
    39    20    21    1
    40    21    22    2
    41    21    42    1
    42    22    23    1
    43    22    43    1
    44    23    24    2
    45    23    44    1
    46    24    25    1
    47    24    45    1
    48    25    26    2
@<TRIPOS>SUBSTRUCTURE
     1 ZINC000898967786        1 TEMP              0 ****  ****    0 ROOT


##########                                Name:    ZINC000579444893
##########                DOCK_Rotatable_Bonds:                   8
##########                         Heavy_Atoms:                  26
##########                    Molecular_Weight:             365.494
##########                DOCK_Rotatable_Bonds:                   8
##########                       Formal_Charge:         -0.00999993
##########                     HBond_Acceptors:                   7
##########                        HBond_Donors:                   1
##########                         Heavy_Atoms:                  26
##########                          Grid_Score:          -31.547264
##########                     Grid_vdw_energy:          -31.419426
##########                      Grid_es_energy:           -0.127838
##########           Internal_energy_repulsive:           30.995205

@<TRIPOS>MOLECULE
ZINC000579444893
 58 60 1 0 0
SMALL
USER_CHARGES


@<TRIPOS>ATOM
      1 C1        -16.8826   -2.7881   51.1010 C.3     1  ZINC000579444893   -0.1600
      2 C2        -15.9990   -1.5516   51.2778 C.3     1  ZINC000579444893    0.1700
      3 H3        -16.4050   -0.9254   52.0722 H       1  ZINC000579444893    0.0900
      4 N4        -14.6401   -1.9691   51.6316 N.am    1  ZINC000579444893   -0.7400
      5 C5        -14.2789   -2.0610   52.9268 C.2     1  ZINC000579444893    0.7100
      6 O6        -15.0807   -1.7960   53.8017 O.2     1  ZINC000579444893   -0.5900
      7 N7        -13.0292   -2.4467   53.2522 N.am    1  ZINC000579444893   -0.6300
      8 C8        -12.0639   -2.7678   52.1982 C.3     1  ZINC000579444893    0.0800
      9 C9        -12.6362   -2.5449   54.6601 C.3     1  ZINC000579444893    0.1100
     10 C10       -12.3969   -4.0122   55.0217 C.3     1  ZINC000579444893    0.0600
     11 H11       -11.6141   -4.4274   54.3870 H       1  ZINC000579444893    0.1000
     12 C12       -13.7012   -4.8169   54.8410 C.3     1  ZINC000579444893   -0.1600
     13 C13       -13.6714   -5.8042   56.0374 C.3     1  ZINC000579444893    0.0800
     14 H14       -13.0535   -6.6732   55.8112 H       1  ZINC000579444893    0.1000
     15 F15       -14.9658   -6.1931   56.3985 F       1  ZINC000579444893   -0.2000
     16 C16       -13.0230   -4.9353   57.1440 C.3     1  ZINC000579444893    0.0200
     17 N17       -12.0046   -4.1221   56.4388 N.3     1  ZINC000579444893   -0.5000
     18 C18       -11.8737   -2.7942   57.0532 C.3     1  ZINC000579444893    0.1000
     19 C19       -11.4816   -2.9465   58.5002 C.2     1  ZINC000579444893    0.0800
     20 C20       -10.3379   -3.5026   58.9625 C.2     1  ZINC000579444893   -0.2500
     21 C21       -10.3662   -3.4464   60.3599 C.2     1  ZINC000579444893    0.0400
     22 N22       -11.4868   -2.8771   60.7233 N.2     1  ZINC000579444893   -0.2900
     23 N23       -12.2055   -2.5477   59.5670 N.pl3   1  ZINC000579444893   -0.3700
     24 C24       -13.5159   -1.8940   59.5236 C.3     1  ZINC000579444893    0.0900
     25 C25       -15.9646   -0.7580   49.9701 C.3     1  ZINC000579444893   -0.1000
     26 C26       -15.1149    0.5261   50.1376 C.3     1  ZINC000579444893   -0.1200
     27 C27       -14.6891    0.8461   48.6831 C.3     1  ZINC000579444893   -0.1300
     28 C28       -14.4201   -0.5368   48.0547 C.3     1  ZINC000579444893   -0.1300
     29 C29       -15.2311   -1.5567   48.8730 C.3     1  ZINC000579444893   -0.1200
     30 H30       -16.8341   -3.4011   52.0009 H       1  ZINC000579444893    0.0600
     31 H31       -17.9129   -2.4767   50.9286 H       1  ZINC000579444893    0.0700
     32 H32       -16.5305   -3.3673   50.2474 H       1  ZINC000579444893    0.0500
     33 H33       -14.0001   -2.1794   50.9336 H       1  ZINC000579444893    0.4000
     34 H34       -11.5838   -1.8519   51.8539 H       1  ZINC000579444893    0.0600
     35 H35       -11.3087   -3.4481   52.5920 H       1  ZINC000579444893    0.0800
     36 H36       -12.5809   -3.2425   51.3643 H       1  ZINC000579444893    0.0700
     37 H37       -11.7203   -1.9767   54.8221 H       1  ZINC000579444893    0.0900
     38 H38       -13.4303   -2.1409   55.2880 H       1  ZINC000579444893    0.0900
     39 H39       -14.5700   -4.1617   54.9036 H       1  ZINC000579444893    0.1100
     40 H40       -13.6924   -5.3577   53.8948 H       1  ZINC000579444893    0.0800
     41 H41       -13.7704   -4.2914   57.6074 H       1  ZINC000579444893    0.0600
     42 H42       -12.5485   -5.5681   57.8939 H       1  ZINC000579444893    0.0900
     43 H43       -11.1077   -2.2244   56.5271 H       1  ZINC000579444893    0.1100
     44 H44       -12.8264   -2.2683   56.9883 H       1  ZINC000579444893    0.0500
     45 H45        -9.5436   -3.9168   58.3593 H       1  ZINC000579444893    0.1500
     46 H46        -9.5964   -3.8107   61.0239 H       1  ZINC000579444893    0.1800
     47 H47       -13.3814   -0.8161   59.4333 H       1  ZINC000579444893    0.0800
     48 H48       -14.0779   -2.2631   58.6657 H       1  ZINC000579444893    0.0800
     49 H49       -14.0634   -2.1164   60.4396 H       1  ZINC000579444893    0.0900
     50 H50       -16.9762   -0.5094   49.6492 H       1  ZINC000579444893    0.0800
     51 H51       -15.7159    1.3358   50.5511 H       1  ZINC000579444893    0.0700
     52 H52       -14.2425    0.3334   50.7619 H       1  ZINC000579444893    0.0700
     53 H53       -15.4938    1.3559   48.1534 H       1  ZINC000579444893    0.0700
     54 H54       -13.7827    1.4514   48.6754 H       1  ZINC000579444893    0.0700
     55 H55       -14.7495   -0.5452   47.0156 H       1  ZINC000579444893    0.0600
     56 H56       -13.3575   -0.7727   48.1119 H       1  ZINC000579444893    0.0600
     57 H57       -14.5622   -2.2875   49.3274 H       1  ZINC000579444893    0.0600
     58 H58       -15.9541   -2.0601   48.2312 H       1  ZINC000579444893    0.0600
@<TRIPOS>BOND
     1     1     2    1
     2     1    30    1
     3     1    31    1
     4     1    32    1
     5     2     3    1
     6     2     4    1
     7     2    25    1
     8     4     5   am
     9     4    33    1
    10     5     6    2
    11     5     7   am
    12     7     8    1
    13     7     9    1
    14     8    34    1
    15     8    35    1
    16     8    36    1
    17     9    10    1
    18     9    37    1
    19     9    38    1
    20    10    11    1
    21    10    17    1
    22    10    12    1
    23    12    13    1
    24    12    39    1
    25    12    40    1
    26    13    14    1
    27    13    15    1
    28    13    16    1
    29    16    17    1
    30    16    41    1
    31    16    42    1
    32    17    18    1
    33    18    19    1
    34    18    43    1
    35    18    44    1
    36    19    23    1
    37    19    20    2
    38    20    21    1
    39    20    45    1
    40    21    22    2
    41    21    46    1
    42    22    23    1
    43    23    24    1
    44    24    47    1
    45    24    48    1
    46    24    49    1
    47    25    29    1
    48    25    26    1
    49    25    50    1
    50    26    27    1
    51    26    51    1
    52    26    52    1
    53    27    28    1
    54    27    53    1
    55    27    54    1
    56    28    29    1
    57    28    55    1
    58    28    56    1
    59    29    57    1
    60    29    58    1
@<TRIPOS>SUBSTRUCTURE
     1 ZINC000579444893        1 TEMP              0 ****  ****    0 ROOT


##########                                Name:    ZINC000467104849
##########                DOCK_Rotatable_Bonds:                   6
##########                         Heavy_Atoms:                  29
##########                    Molecular_Weight:             421.896
##########                DOCK_Rotatable_Bonds:                   6
##########                       Formal_Charge:           0.0200002
##########                     HBond_Acceptors:                   7
##########                        HBond_Donors:                   0
##########                         Heavy_Atoms:                  29
##########                          Grid_Score:          -31.534838
##########                     Grid_vdw_energy:          -31.234741
##########                      Grid_es_energy:           -0.300097
##########           Internal_energy_repulsive:           68.485893

@<TRIPOS>MOLECULE
ZINC000467104849
 54 56 1 0 0
SMALL
USER_CHARGES


@<TRIPOS>ATOM
      1 C1         -9.1359   -3.4536   60.2870 C.3     1  ZINC000467104849    0.0200
      2 O2        -10.4463   -2.8834   60.2837 O.3     1  ZINC000467104849   -0.3000
      3 C3        -11.2681   -3.2307   59.2574 C.ar    1  ZINC000467104849    0.1000
      4 C4        -10.8820   -4.2136   58.3609 C.ar    1  ZINC000467104849   -0.1700
      5 C5        -11.7189   -4.5658   57.3181 C.ar    1  ZINC000467104849   -0.1200
      6 C6        -12.9414   -3.9389   57.1670 C.ar    1  ZINC000467104849   -0.0800
      7 C7        -13.8495   -4.3262   56.0285 C.3     1  ZINC000467104849   -0.0400
      8 C8        -14.5612   -5.6375   56.3672 C.3     1  ZINC000467104849   -0.1300
      9 C9        -14.8879   -3.2247   55.8070 C.3     1  ZINC000467104849   -0.1600
     10 C10       -13.0336   -4.5070   54.7744 C.2     1  ZINC000467104849    0.5300
     11 O11       -13.1827   -5.4981   54.0915 O.2     1  ZINC000467104849   -0.5300
     12 N12       -12.1383   -3.5671   54.4116 N.am    1  ZINC000467104849   -0.6100
     13 C13       -11.3303   -3.7216   53.1915 C.3     1  ZINC000467104849    0.0600
     14 C14       -11.4479   -2.4344   52.3675 C.3     1  ZINC000467104849    0.0500
     15 O15       -11.1357   -1.3135   53.1981 O.3     1  ZINC000467104849   -0.3700
     16 C16       -12.0283   -1.1353   54.3005 C.3     1  ZINC000467104849    0.1300
     17 H17       -13.0482   -1.0317   53.9302 H       1  ZINC000467104849    0.0800
     18 C18       -11.6422    0.1044   55.0655 C.ar    1  ZINC000467104849   -0.0900
     19 C19       -10.3080    0.4031   55.2683 C.ar    1  ZINC000467104849   -0.0500
     20 C20        -9.9519    1.5398   55.9697 C.ar    1  ZINC000467104849   -0.1400
     21 C21       -10.9319    2.3799   56.4691 C.ar    1  ZINC000467104849    0.1200
     22 F22       -10.5850    3.4912   57.1544 F       1  ZINC000467104849   -0.1200
     23 C23       -12.2696    2.0801   56.2651 C.ar    1  ZINC000467104849   -0.0800
     24 Cl24      -13.5007    3.1322   56.8905 Cl      1  ZINC000467104849   -0.0400
     25 C25       -12.6228    0.9448   55.5589 C.ar    1  ZINC000467104849   -0.0700
     26 C26       -11.9442   -2.3533   55.2205 C.3     1  ZINC000467104849    0.0900
     27 C27       -13.3333   -2.9571   58.0587 C.ar    1  ZINC000467104849   -0.1600
     28 C28       -12.5017   -2.6033   59.1087 C.ar    1  ZINC000467104849    0.1100
     29 O29       -12.8856   -1.6381   59.9864 O.3     1  ZINC000467104849   -0.3000
     30 C30       -14.1813   -1.0663   59.7962 C.3     1  ZINC000467104849    0.0200
     31 H31        -8.5860   -3.0952   61.1571 H       1  ZINC000467104849    0.1000
     32 H32        -9.2126   -4.5402   60.3279 H       1  ZINC000467104849    0.0600
     33 H33        -8.6099   -3.1605   59.3785 H       1  ZINC000467104849    0.0600
     34 H34        -9.9269   -4.7045   58.4762 H       1  ZINC000467104849    0.1400
     35 H35       -11.4167   -5.3322   56.6198 H       1  ZINC000467104849    0.1300
     36 H36       -15.2198   -5.4831   57.2221 H       1  ZINC000467104849    0.0700
     37 H37       -15.1496   -5.9638   55.5096 H       1  ZINC000467104849    0.0700
     38 H38       -13.8215   -6.3999   56.6115 H       1  ZINC000467104849    0.0700
     39 H39       -14.3872   -2.3138   55.4790 H       1  ZINC000467104849    0.0700
     40 H40       -15.5986   -3.5433   55.0444 H       1  ZINC000467104849    0.0700
     41 H41       -15.4180   -3.0323   56.7398 H       1  ZINC000467104849    0.0700
     42 H42       -10.2877   -3.8911   53.4607 H       1  ZINC000467104849    0.0800
     43 H43       -11.7015   -4.5652   52.6097 H       1  ZINC000467104849    0.1100
     44 H44       -10.7507   -2.4728   51.5306 H       1  ZINC000467104849    0.1100
     45 H45       -12.4658   -2.3355   51.9901 H       1  ZINC000467104849    0.0600
     46 H46        -9.5430   -0.2523   54.8787 H       1  ZINC000467104849    0.1500
     47 H47        -8.9092    1.7721   56.1283 H       1  ZINC000467104849    0.1500
     48 H48       -13.6649    0.7108   55.3992 H       1  ZINC000467104849    0.1500
     49 H49       -12.7201   -2.2911   55.9838 H       1  ZINC000467104849    0.1100
     50 H50       -10.9637   -2.3881   55.6952 H       1  ZINC000467104849    0.0800
     51 H51       -14.2890   -2.4688   57.9385 H       1  ZINC000467104849    0.1400
     52 H52       -14.2330   -0.6033   58.8107 H       1  ZINC000467104849    0.0600
     53 H53       -14.9377   -1.8476   59.8708 H       1  ZINC000467104849    0.0600
     54 H54       -14.3615   -0.3118   60.5620 H       1  ZINC000467104849    0.1000
@<TRIPOS>BOND
     1     1     2    1
     2     1    31    1
     3     1    32    1
     4     1    33    1
     5     2     3    1
     6     3    28   ar
     7     3     4   ar
     8     4     5   ar
     9     4    34    1
    10     5     6   ar
    11     5    35    1
    12     6     7    1
    13     6    27   ar
    14     7     8    1
    15     7     9    1
    16     7    10    1
    17     8    36    1
    18     8    37    1
    19     8    38    1
    20     9    39    1
    21     9    40    1
    22     9    41    1
    23    10    11    2
    24    10    12   am
    25    12    26    1
    26    12    13    1
    27    13    14    1
    28    13    42    1
    29    13    43    1
    30    14    15    1
    31    14    44    1
    32    14    45    1
    33    15    16    1
    34    16    17    1
    35    16    18    1
    36    16    26    1
    37    18    25   ar
    38    18    19   ar
    39    19    20   ar
    40    19    46    1
    41    20    21   ar
    42    20    47    1
    43    21    22    1
    44    21    23   ar
    45    23    24    1
    46    23    25   ar
    47    25    48    1
    48    26    49    1
    49    26    50    1
    50    27    28   ar
    51    27    51    1
    52    28    29    1
    53    29    30    1
    54    30    52    1
    55    30    53    1
    56    30    54    1
@<TRIPOS>SUBSTRUCTURE
     1 ZINC000467104849        1 TEMP              0 ****  ****    0 ROOT


##########                                Name:    ZINC000481050680
##########                DOCK_Rotatable_Bonds:                   7
##########                         Heavy_Atoms:                  29
##########                    Molecular_Weight:              412.46
##########                DOCK_Rotatable_Bonds:                   7
##########                       Formal_Charge:          -0.0199997
##########                     HBond_Acceptors:                   7
##########                        HBond_Donors:                   1
##########                         Heavy_Atoms:                  29
##########                          Grid_Score:          -31.518570
##########                     Grid_vdw_energy:          -31.590189
##########                      Grid_es_energy:            0.071619
##########           Internal_energy_repulsive:           12.845199

@<TRIPOS>MOLECULE
ZINC000481050680
 47 49 1 0 0
SMALL
USER_CHARGES


@<TRIPOS>ATOM
      1 N1         -9.8536    0.0663   64.2772 N.1     1  ZINC000481050680   -0.3900
      2 C2         -9.9287   -0.3830   63.2366 C.1     1  ZINC000481050680    0.2500
      3 C3        -10.0233   -0.9495   61.9248 C.ar    1  ZINC000481050680    0.0200
      4 C4        -10.8243   -0.3428   60.9555 C.ar    1  ZINC000481050680   -0.0800
      5 C5        -10.9115   -0.8926   59.6930 C.ar    1  ZINC000481050680   -0.0800
      6 C6        -10.2078   -2.0427   59.3853 C.ar    1  ZINC000481050680   -0.1000
      7 C7        -10.3082   -2.6369   58.0041 C.3     1  ZINC000481050680   -0.5900
      8 S8        -11.5431   -3.9657   58.0058 S.o2    1  ZINC000481050680    2.6000
      9 O9        -10.9305   -5.2153   58.2929 O.2     1  ZINC000481050680   -0.9300
     10 O10       -12.7193   -3.5525   58.6877 O.2     1  ZINC000481050680   -0.9400
     11 N11       -12.0128   -4.0953   56.4231 N.am    1  ZINC000481050680   -1.1100
     12 C12       -12.6155   -2.9470   55.7415 C.3     1  ZINC000481050680    0.2100
     13 H13       -12.6009   -2.0822   56.4048 H       1  ZINC000481050680    0.1000
     14 C14       -14.0616   -3.2779   55.3667 C.3     1  ZINC000481050680   -0.0800
     15 C15       -14.6312   -2.1623   54.5289 C.ar    1  ZINC000481050680   -0.0900
     16 C16       -15.3806   -2.4555   53.4049 C.ar    1  ZINC000481050680   -0.1200
     17 C17       -15.9031   -1.4322   52.6363 C.ar    1  ZINC000481050680   -0.1200
     18 C18       -15.6764   -0.1157   52.9919 C.ar    1  ZINC000481050680   -0.1200
     19 C19       -14.9276    0.1774   54.1162 C.ar    1  ZINC000481050680   -0.1200
     20 C20       -14.4088   -0.8459   54.8873 C.ar    1  ZINC000481050680   -0.1200
     21 C21       -11.8315   -2.6358   54.4928 C.ar    1  ZINC000481050680   -0.1300
     22 C22       -11.7805   -3.5544   53.4618 C.ar    1  ZINC000481050680   -0.0700
     23 C23       -11.0611   -3.2690   52.3159 C.ar    1  ZINC000481050680   -0.1300
     24 C24       -10.3920   -2.0651   52.2006 C.ar    1  ZINC000481050680   -0.0900
     25 C25       -10.4411   -1.1450   53.2308 C.ar    1  ZINC000481050680   -0.1500
     26 C26       -11.1665   -1.4268   54.3758 C.ar    1  ZINC000481050680    0.1100
     27 F27       -11.2153   -0.5281   55.3834 F       1  ZINC000481050680   -0.1400
     28 C28        -9.4100   -2.6508   60.3418 C.ar    1  ZINC000481050680    0.1200
     29 F29        -8.7250   -3.7738   60.0339 F       1  ZINC000481050680   -0.1200
     30 C30        -9.3105   -2.1075   61.6081 C.ar    1  ZINC000481050680   -0.1000
     31 H31       -11.3751    0.5552   61.1935 H       1  ZINC000481050680    0.1500
     32 H32       -11.5314   -0.4237   58.9430 H       1  ZINC000481050680    0.1500
     33 H33       -10.6077   -1.8635   57.2967 H       1  ZINC000481050680    0.1500
     34 H34        -9.3394   -3.0416   57.7113 H       1  ZINC000481050680    0.1500
     35 H35       -11.8889   -4.9315   55.9473 H       1  ZINC000481050680    0.4200
     36 H36       -14.0859   -4.2078   54.7986 H       1  ZINC000481050680    0.0900
     37 H37       -14.6552   -3.3907   56.2738 H       1  ZINC000481050680    0.0900
     38 H38       -15.5578   -3.4840   53.1271 H       1  ZINC000481050680    0.1200
     39 H39       -16.4881   -1.6612   51.7578 H       1  ZINC000481050680    0.1200
     40 H40       -16.0839    0.6838   52.3909 H       1  ZINC000481050680    0.1200
     41 H41       -14.7501    1.2060   54.3938 H       1  ZINC000481050680    0.1200
     42 H42       -13.8238   -0.6169   55.7658 H       1  ZINC000481050680    0.1200
     43 H43       -12.3024   -4.4957   53.5512 H       1  ZINC000481050680    0.1300
     44 H44       -11.0219   -3.9876   51.5106 H       1  ZINC000481050680    0.1300
     45 H45        -9.8301   -1.8435   51.3052 H       1  ZINC000481050680    0.1300
     46 H46        -9.9176   -0.2046   53.1407 H       1  ZINC000481050680    0.1400
     47 H47        -8.6886   -2.5812   62.3533 H       1  ZINC000481050680    0.1600
@<TRIPOS>BOND
     1     1     2    3
     2     2     3    1
     3     3    30   ar
     4     3     4   ar
     5     4     5   ar
     6     4    31    1
     7     5     6   ar
     8     5    32    1
     9     6     7    1
    10     6    28   ar
    11     7     8    1
    12     7    33    1
    13     7    34    1
    14     8     9    2
    15     8    10    2
    16     8    11   am
    17    11    12    1
    18    11    35    1
    19    12    13    1
    20    12    14    1
    21    12    21    1
    22    14    15    1
    23    14    36    1
    24    14    37    1
    25    15    20   ar
    26    15    16   ar
    27    16    17   ar
    28    16    38    1
    29    17    18   ar
    30    17    39    1
    31    18    19   ar
    32    18    40    1
    33    19    20   ar
    34    19    41    1
    35    20    42    1
    36    21    26   ar
    37    21    22   ar
    38    22    23   ar
    39    22    43    1
    40    23    24   ar
    41    23    44    1
    42    24    25   ar
    43    24    45    1
    44    25    26   ar
    45    25    46    1
    46    26    27    1
    47    28    29    1
    48    28    30   ar
    49    30    47    1
@<TRIPOS>SUBSTRUCTURE
     1 ZINC000481050680        1 TEMP              0 ****  ****    0 ROOT


##########                                Name:    ZINC000842947763
##########                DOCK_Rotatable_Bonds:                   7
##########                         Heavy_Atoms:                  24
##########                    Molecular_Weight:             365.373
##########                DOCK_Rotatable_Bonds:                   7
##########                       Formal_Charge:          0.00999997
##########                     HBond_Acceptors:                   9
##########                        HBond_Donors:                   0
##########                         Heavy_Atoms:                  24
##########                          Grid_Score:          -31.510176
##########                     Grid_vdw_energy:          -30.599594
##########                      Grid_es_energy:           -0.910582
##########           Internal_energy_repulsive:           32.972359

@<TRIPOS>MOLECULE
ZINC000842947763
 42 43 1 0 0
SMALL
USER_CHARGES


@<TRIPOS>ATOM
      1 C1        -11.8053   -4.2630   52.7048 C.3     1  ZINC000842947763   -0.1600
      2 C2        -11.6281   -3.0187   53.5772 C.3     1  ZINC000842947763   -0.1000
      3 H3        -10.6854   -2.5316   53.3282 H       1  ZINC000842947763    0.1000
      4 C4        -11.6171   -3.4271   55.0518 C.3     1  ZINC000842947763    0.0800
      5 O5        -12.7012   -4.3595   55.3038 O.3     1  ZINC000842947763   -0.3500
      6 C6        -12.9040   -4.7306   56.5834 C.2     1  ZINC000842947763    0.5200
      7 O7        -13.4639   -5.7804   56.8301 O.2     1  ZINC000842947763   -0.5100
      8 C8        -12.4469   -3.8629   57.6835 C.ar    1  ZINC000842947763   -0.1600
      9 C9        -13.2641   -2.8289   58.1512 C.ar    1  ZINC000842947763   -0.0200
     10 C10       -12.8323   -2.0239   59.1771 C.ar    1  ZINC000842947763   -0.1700
     11 C11       -11.5759   -2.2319   59.7591 C.ar    1  ZINC000842947763    0.2000
     12 C12       -10.7709   -3.2623   59.2874 C.ar    1  ZINC000842947763   -0.1500
     13 C13       -11.1954   -4.0710   58.2710 C.ar    1  ZINC000842947763   -0.0100
     14 C14        -9.4836   -3.2661   60.0820 C.3     1  ZINC000842947763   -0.0800
     15 C15        -9.6437   -2.1050   61.0770 C.3     1  ZINC000842947763    0.1100
     16 N16       -10.9638   -1.5359   60.7946 N.am    1  ZINC000842947763   -0.9400
     17 S17       -11.6306   -0.2481   61.5939 S.o2    1  ZINC000842947763    2.6100
     18 C18       -10.4690    1.1148   61.3049 C.3     1  ZINC000842947763   -0.6700
     19 O19       -12.8564   -0.0109   60.9153 O.2     1  ZINC000842947763   -0.9300
     20 O20       -11.6131   -0.6367   62.9606 O.2     1  ZINC000842947763   -0.9400
     21 C21       -12.7851   -2.0499   53.3251 C.3     1  ZINC000842947763   -0.1600
     22 C22       -12.4904   -1.2180   52.0753 C.3     1  ZINC000842947763    0.4600
     23 F23       -13.3795   -0.1398   52.0124 F       1  ZINC000842947763   -0.1800
     24 F24       -11.1778   -0.7373   52.1338 F       1  ZINC000842947763   -0.1800
     25 F25       -12.6442   -2.0162   50.9367 F       1  ZINC000842947763   -0.1800
     26 H26       -11.6734   -3.9936   51.6568 H       1  ZINC000842947763    0.0700
     27 H27       -11.0635   -5.0112   52.9839 H       1  ZINC000842947763    0.0700
     28 H28       -12.8056   -4.6705   52.8519 H       1  ZINC000842947763    0.0600
     29 H29       -10.6658   -3.9031   55.2899 H       1  ZINC000842947763    0.0800
     30 H30       -11.7467   -2.5421   55.6748 H       1  ZINC000842947763    0.0800
     31 H31       -14.2339   -2.6630   57.7058 H       1  ZINC000842947763    0.1500
     32 H32       -13.4652   -1.2260   59.5366 H       1  ZINC000842947763    0.1500
     33 H33       -10.5592   -4.8679   57.9152 H       1  ZINC000842947763    0.1400
     34 H34        -9.3677   -4.2102   60.6142 H       1  ZINC000842947763    0.1000
     35 H35        -8.6308   -3.0906   59.4262 H       1  ZINC000842947763    0.1000
     36 H36        -9.6032   -2.4763   62.1010 H       1  ZINC000842947763    0.1000
     37 H37        -8.8671   -1.3576   60.9140 H       1  ZINC000842947763    0.0900
     38 H38       -10.3851    1.2997   60.2338 H       1  ZINC000842947763    0.1300
     39 H39       -10.8333    2.0142   61.8014 H       1  ZINC000842947763    0.1400
     40 H40        -9.4906    0.8496   61.7054 H       1  ZINC000842947763    0.1300
     41 H41       -13.7058   -2.6141   53.1771 H       1  ZINC000842947763    0.1200
     42 H42       -12.8985   -1.3880   54.1837 H       1  ZINC000842947763    0.1100
@<TRIPOS>BOND
     1     1     2    1
     2     1    26    1
     3     1    27    1
     4     1    28    1
     5     2     3    1
     6     2     4    1
     7     2    21    1
     8     4     5    1
     9     4    29    1
    10     4    30    1
    11     5     6    1
    12     6     7    2
    13     6     8    1
    14     8    13   ar
    15     8     9   ar
    16     9    10   ar
    17     9    31    1
    18    10    11   ar
    19    10    32    1
    20    11    16    1
    21    11    12   ar
    22    12    13   ar
    23    12    14    1
    24    13    33    1
    25    14    15    1
    26    14    34    1
    27    14    35    1
    28    15    16    1
    29    15    36    1
    30    15    37    1
    31    16    17   am
    32    17    18    1
    33    17    19    2
    34    17    20    2
    35    18    38    1
    36    18    39    1
    37    18    40    1
    38    21    22    1
    39    21    41    1
    40    21    42    1
    41    22    23    1
    42    22    24    1
    43    22    25    1
@<TRIPOS>SUBSTRUCTURE
     1 ZINC000842947763        1 TEMP              0 ****  ****    0 ROOT


##########                                Name:    ZINC000438893617
##########                DOCK_Rotatable_Bonds:                   5
##########                         Heavy_Atoms:                  29
##########                    Molecular_Weight:             412.596
##########                DOCK_Rotatable_Bonds:                   5
##########                       Formal_Charge:           0.0600001
##########                     HBond_Acceptors:                   5
##########                        HBond_Donors:                   0
##########                         Heavy_Atoms:                  29
##########                          Grid_Score:          -31.506010
##########                     Grid_vdw_energy:          -31.360277
##########                      Grid_es_energy:           -0.145733
##########           Internal_energy_repulsive:          166.309967

@<TRIPOS>MOLECULE
ZINC000438893617
 61 66 1 0 0
SMALL
USER_CHARGES


@<TRIPOS>ATOM
      1 C1        -13.3061    1.7415   64.9172 C.3     1  ZINC000438893617   -0.1000
      2 C2        -13.2152    2.1217   63.4618 C.2     1  ZINC000438893617   -0.0900
      3 C3        -12.3877    1.5124   62.6114 C.2     1  ZINC000438893617   -0.1600
      4 C4        -11.4498    0.3877   62.9671 C.3     1  ZINC000438893617   -0.0400
      5 H5        -11.9175   -0.4928   63.4077 H       1  ZINC000438893617    0.1400
      6 C6        -10.0497    0.7634   63.4563 C.3     1  ZINC000438893617   -0.1400
      7 C7        -10.2381    0.1649   62.0601 C.3     1  ZINC000438893617   -0.1800
      8 H8        -10.1189    0.8318   61.2063 H       1  ZINC000438893617    0.1300
      9 C9         -9.7814   -1.2551   61.8444 C.2     1  ZINC000438893617    0.5500
     10 O10        -8.8755   -1.7087   62.5111 O.2     1  ZINC000438893617   -0.5300
     11 N11       -10.3800   -2.0209   60.9107 N.am    1  ZINC000438893617   -0.6100
     12 C12       -11.4736   -1.4821   60.0901 C.3     1  ZINC000438893617    0.0900
     13 C13       -11.1086   -1.6575   58.6108 C.3     1  ZINC000438893617    0.1000
     14 N14       -10.6787   -3.0461   58.3946 N.am    1  ZINC000438893617   -0.6100
     15 C15       -11.2766   -3.8117   57.4602 C.2     1  ZINC000438893617    0.5300
     16 O16       -10.9131   -4.9563   57.2908 O.2     1  ZINC000438893617   -0.5300
     17 C17       -12.3966   -3.2453   56.6259 C.3     1  ZINC000438893617   -0.0700
     18 C18       -11.8993   -2.0067   55.8780 C.3     1  ZINC000438893617   -0.1100
     19 C19       -13.0364   -1.4317   55.0310 C.3     1  ZINC000438893617   -0.0800
     20 C20       -14.2039   -1.0438   55.9405 C.3     1  ZINC000438893617   -0.1100
     21 C21       -14.7012   -2.2825   56.6884 C.3     1  ZINC000438893617   -0.0800
     22 C22       -15.1679   -3.3341   55.6799 C.3     1  ZINC000438893617   -0.1100
     23 C23       -14.0004   -3.7220   54.7704 C.3     1  ZINC000438893617   -0.0900
     24 C24       -13.5031   -2.4833   54.0224 C.3     1  ZINC000438893617   -0.1100
     25 C25       -12.8632   -4.2969   55.6173 C.3     1  ZINC000438893617   -0.0900
     26 C26       -13.5641   -2.8574   57.5354 C.3     1  ZINC000438893617   -0.1200
     27 C27        -9.5851   -3.5850   59.2152 C.3     1  ZINC000438893617    0.0700
     28 C28        -9.9463   -3.4078   60.6906 C.3     1  ZINC000438893617    0.1000
     29 S29       -12.5590    2.2220   61.0112 S.3     1  ZINC000438893617    0.1000
     30 C30       -13.7810    3.3392   61.6046 C.2     1  ZINC000438893617   -0.2100
     31 C31       -13.9883    3.1260   62.9049 C.2     1  ZINC000438893617   -0.1300
     32 H32       -14.0587    0.9630   65.0430 H       1  ZINC000438893617    0.0700
     33 H33       -12.3392    1.3703   65.2569 H       1  ZINC000438893617    0.0700
     34 H34       -13.5863    2.6160   65.5044 H       1  ZINC000438893617    0.0700
     35 H35        -9.8069    1.8240   63.5208 H       1  ZINC000438893617    0.1100
     36 H36        -9.5960    0.1298   64.2184 H       1  ZINC000438893617    0.1100
     37 H37       -12.3944   -2.0238   60.3064 H       1  ZINC000438893617    0.0800
     38 H38       -11.6088   -0.4232   60.3104 H       1  ZINC000438893617    0.1000
     39 H39       -11.9795   -1.4435   57.9913 H       1  ZINC000438893617    0.1100
     40 H40       -10.2963   -0.9785   58.3514 H       1  ZINC000438893617    0.0700
     41 H41       -11.5669   -1.2575   56.5965 H       1  ZINC000438893617    0.0800
     42 H42       -11.0675   -2.2830   55.2300 H       1  ZINC000438893617    0.0700
     43 H43       -12.6822   -0.5492   54.4982 H       1  ZINC000438893617    0.0800
     44 H44       -13.8715   -0.2946   56.6591 H       1  ZINC000438893617    0.0600
     45 H45       -15.0140   -0.6342   55.3371 H       1  ZINC000438893617    0.0700
     46 H46       -15.5330   -2.0061   57.3364 H       1  ZINC000438893617    0.0800
     47 H47       -15.5222   -4.2165   56.2127 H       1  ZINC000438893617    0.0600
     48 H48       -15.9780   -2.9245   55.0765 H       1  ZINC000438893617    0.0700
     49 H49       -14.3328   -4.4712   54.0518 H       1  ZINC000438893617    0.0700
     50 H50       -14.3132   -2.0737   53.4190 H       1  ZINC000438893617    0.0700
     51 H51       -12.6713   -2.7596   53.3744 H       1  ZINC000438893617    0.0600
     52 H52       -12.0314   -4.5733   54.9694 H       1  ZINC000438893617    0.0700
     53 H53       -13.2174   -5.1794   56.1502 H       1  ZINC000438893617    0.0700
     54 H54       -13.9183   -3.7399   58.0683 H       1  ZINC000438893617    0.0700
     55 H55       -13.2316   -2.1083   58.2539 H       1  ZINC000438893617    0.0800
     56 H56        -9.4499   -4.6438   58.9949 H       1  ZINC000438893617    0.1300
     57 H57        -8.6643   -3.0432   58.9988 H       1  ZINC000438893617    0.0800
     58 H58        -9.0746   -3.6222   61.3089 H       1  ZINC000438893617    0.1100
     59 H59       -10.7590   -4.0854   60.9522 H       1  ZINC000438893617    0.0700
     60 H60       -14.2890    4.0813   61.0066 H       1  ZINC000438893617    0.1700
     61 H61       -14.6996    3.6988   63.4814 H       1  ZINC000438893617    0.1400
@<TRIPOS>BOND
     1     1     2    1
     2     1    32    1
     3     1    33    1
     4     1    34    1
     5     2    31    1
     6     2     3    2
     7     3     4    1
     8     3    29    1
     9     4     5    1
    10     4     7    1
    11     4     6    1
    12     6     7    1
    13     6    35    1
    14     6    36    1
    15     7     8    1
    16     7     9    1
    17     9    10    2
    18     9    11   am
    19    11    28    1
    20    11    12    1
    21    12    13    1
    22    12    37    1
    23    12    38    1
    24    13    14    1
    25    13    39    1
    26    13    40    1
    27    14    15   am
    28    14    27    1
    29    15    16    2
    30    15    17    1
    31    17    25    1
    32    17    26    1
    33    17    18    1
    34    18    19    1
    35    18    41    1
    36    18    42    1
    37    19    24    1
    38    19    20    1
    39    19    43    1
    40    20    21    1
    41    20    44    1
    42    20    45    1
    43    21    22    1
    44    21    26    1
    45    21    46    1
    46    22    23    1
    47    22    47    1
    48    22    48    1
    49    23    24    1
    50    23    25    1
    51    23    49    1
    52    24    50    1
    53    24    51    1
    54    25    52    1
    55    25    53    1
    56    26    54    1
    57    26    55    1
    58    27    28    1
    59    27    56    1
    60    27    57    1
    61    28    58    1
    62    28    59    1
    63    29    30    1
    64    30    31    2
    65    30    60    1
    66    31    61    1
@<TRIPOS>SUBSTRUCTURE
     1 ZINC000438893617        1 TEMP              0 ****  ****    0 ROOT


##########                                Name:    ZINC000080099940
##########                DOCK_Rotatable_Bonds:                   4
##########                         Heavy_Atoms:                  26
##########                    Molecular_Weight:             343.388
##########                DOCK_Rotatable_Bonds:                   4
##########                       Formal_Charge:        -3.42727e-07
##########                     HBond_Acceptors:                   6
##########                        HBond_Donors:                   1
##########                         Heavy_Atoms:                  26
##########                          Grid_Score:          -31.483725
##########                     Grid_vdw_energy:          -32.579575
##########                      Grid_es_energy:            1.095850
##########           Internal_energy_repulsive:            3.123850

@<TRIPOS>MOLECULE
ZINC000080099940
 43 46 1 0 0
SMALL
USER_CHARGES


@<TRIPOS>ATOM
      1 C1         -8.8686    3.4169   67.3769 C.3     1  ZINC000080099940   -0.1100
      2 C2         -8.9274    2.2091   66.4774 C.2     1  ZINC000080099940   -0.0700
      3 C3         -9.3984    2.3257   65.2069 C.2     1  ZINC000080099940   -0.0900
      4 C4         -9.4460    1.1846   64.3799 C.2     1  ZINC000080099940    0.2300
      5 N5         -9.8483    1.0098   63.1298 N.2     1  ZINC000080099940   -0.4800
      6 C6         -9.6919   -0.2805   62.7941 C.2     1  ZINC000080099940    0.1000
      7 C7        -10.0251   -0.8830   61.4798 C.ar    1  ZINC000080099940   -0.0200
      8 C8         -9.3660   -2.0347   61.0528 C.ar    1  ZINC000080099940   -0.0800
      9 C9         -9.6774   -2.5931   59.8313 C.ar    1  ZINC000080099940   -0.1200
     10 C10       -10.6475   -2.0083   59.0256 C.ar    1  ZINC000080099940    0.1500
     11 N11       -10.9613   -2.5758   57.7876 N.am    1  ZINC000080099940   -0.6500
     12 C12       -12.1019   -3.2778   57.6378 C.2     1  ZINC000080099940    0.5700
     13 O13       -12.8575   -3.4175   58.5790 O.2     1  ZINC000080099940   -0.5000
     14 C14       -12.4351   -3.8805   56.3232 C.ar    1  ZINC000080099940    0.1300
     15 C15       -13.3594   -4.9218   56.2341 C.ar    1  ZINC000080099940   -0.1700
     16 C16       -13.6357   -5.4498   54.9807 C.ar    1  ZINC000080099940    0.1600
     17 N17       -13.0193   -4.9526   53.9225 N.ar    1  ZINC000080099940   -0.5000
     18 C18       -12.1504   -3.9673   54.0419 C.ar    1  ZINC000080099940    0.3200
     19 C19       -11.4737   -3.4347   52.8052 C.3     1  ZINC000080099940   -0.0900
     20 N20       -11.8611   -3.4327   55.2086 N.ar    1  ZINC000080099940   -0.5000
     21 C21       -11.3061   -0.8601   59.4497 C.ar    1  ZINC000080099940   -0.1400
     22 C22       -11.0016   -0.3014   60.6728 C.ar    1  ZINC000080099940   -0.0700
     23 C23        -9.1741   -0.9419   63.8668 C.2     1  ZINC000080099940   -0.0900
     24 N24        -9.0176   -0.0235   64.8673 N.pl3   1  ZINC000080099940   -0.3600
     25 C25        -8.5471   -0.1259   66.1449 C.2     1  ZINC000080099940    0.0600
     26 C26        -8.4905    0.9589   66.9457 C.2     1  ZINC000080099940   -0.1400
     27 H27        -8.4616    3.1287   68.3461 H       1  ZINC000080099940    0.0700
     28 H28        -8.2293    4.1754   66.9253 H       1  ZINC000080099940    0.0800
     29 H29        -9.8726    3.8201   67.5098 H       1  ZINC000080099940    0.0800
     30 H30        -9.7332    3.2830   64.8351 H       1  ZINC000080099940    0.1500
     31 H31        -8.6118   -2.4890   61.6781 H       1  ZINC000080099940    0.1300
     32 H32        -9.1672   -3.4855   59.5001 H       1  ZINC000080099940    0.1400
     33 H33       -10.3582   -2.4643   57.0362 H       1  ZINC000080099940    0.4200
     34 H34       -13.8467   -5.3072   57.1175 H       1  ZINC000080099940    0.1600
     35 H35       -14.3452   -6.2568   54.8715 H       1  ZINC000080099940    0.1800
     36 H36       -12.0686   -2.6231   52.3864 H       1  ZINC000080099940    0.0900
     37 H37       -10.4828   -3.0623   53.0651 H       1  ZINC000080099940    0.0900
     38 H38       -11.3801   -4.2337   52.0696 H       1  ZINC000080099940    0.0900
     39 H39       -12.0596   -0.4074   58.8222 H       1  ZINC000080099940    0.1300
     40 H40       -11.5139    0.5905   61.0020 H       1  ZINC000080099940    0.1400
     41 H41        -8.9330   -1.9934   63.9173 H       1  ZINC000080099940    0.1900
     42 H42        -8.2128   -1.0832   66.5165 H       1  ZINC000080099940    0.1700
     43 H43        -8.1156    0.8635   67.9541 H       1  ZINC000080099940    0.1500
@<TRIPOS>BOND
     1     1     2    1
     2     1    27    1
     3     1    28    1
     4     1    29    1
     5     2    26    1
     6     2     3    2
     7     3     4    1
     8     3    30    1
     9     4    24    1
    10     4     5    2
    11     5     6    1
    12     6     7    1
    13     6    23    2
    14     7    22   ar
    15     7     8   ar
    16     8     9   ar
    17     8    31    1
    18     9    10   ar
    19     9    32    1
    20    10    11    1
    21    10    21   ar
    22    11    12   am
    23    11    33    1
    24    12    13    2
    25    12    14    1
    26    14    20   ar
    27    14    15   ar
    28    15    16   ar
    29    15    34    1
    30    16    17   ar
    31    16    35    1
    32    17    18   ar
    33    18    19    1
    34    18    20   ar
    35    19    36    1
    36    19    37    1
    37    19    38    1
    38    21    22   ar
    39    21    39    1
    40    22    40    1
    41    23    24    1
    42    23    41    1
    43    24    25    1
    44    25    26    2
    45    25    42    1
    46    26    43    1
@<TRIPOS>SUBSTRUCTURE
     1 ZINC000080099940        1 TEMP              0 ****  ****    0 ROOT


##########                                Name:    ZINC000944933040
##########                DOCK_Rotatable_Bonds:                   4
##########                         Heavy_Atoms:                  26
##########                    Molecular_Weight:             354.449
##########                DOCK_Rotatable_Bonds:                   4
##########                       Formal_Charge:           0.0100002
##########                     HBond_Acceptors:                   5
##########                        HBond_Donors:                   0
##########                         Heavy_Atoms:                  26
##########                          Grid_Score:          -31.441847
##########                     Grid_vdw_energy:          -31.879869
##########                      Grid_es_energy:            0.438024
##########           Internal_energy_repulsive:           13.944541

@<TRIPOS>MOLECULE
ZINC000944933040
 52 57 1 0 0
SMALL
USER_CHARGES


@<TRIPOS>ATOM
      1 O1         -8.8597   -0.9587   63.2045 O.2     1  ZINC000944933040   -0.5200
      2 C2         -9.9074   -0.6387   62.6765 C.2     1  ZINC000944933040    0.6400
      3 C3        -10.5989    0.5373   63.1121 C.1     1  ZINC000944933040   -0.2200
      4 C4        -11.1657    1.5013   63.4693 C.1     1  ZINC000944933040   -0.0400
      5 C5        -11.8765    2.7101   63.9170 C.3     1  ZINC000944933040   -0.0700
      6 C6        -11.0291    3.9079   64.3509 C.3     1  ZINC000944933040   -0.1600
      7 C7        -11.7919    3.9505   63.0253 C.3     1  ZINC000944933040   -0.1600
      8 N8        -10.4151   -1.3878   61.6777 N.am    1  ZINC000944933040   -0.6000
      9 C9         -9.7179   -2.5994   61.2269 C.3     1  ZINC000944933040    0.1100
     10 C10        -9.4607   -2.4882   59.7193 C.3     1  ZINC000944933040   -0.1200
     11 C11       -10.7737   -2.1650   59.0106 C.3     1  ZINC000944933040   -0.0900
     12 C12       -10.6834   -2.2477   57.4806 C.3     1  ZINC000944933040    0.1200
     13 N13       -11.9958   -2.9216   57.5432 N.am    1  ZINC000944933040   -0.6400
     14 C14       -13.0191   -3.0774   56.6800 C.2     1  ZINC000944933040    0.5500
     15 O15       -14.0054   -3.6987   57.0146 O.2     1  ZINC000944933040   -0.5300
     16 C16       -12.9376   -2.4796   55.2990 C.3     1  ZINC000944933040   -0.1300
     17 H17       -12.9213   -1.3910   55.3514 H       1  ZINC000944933040    0.1100
     18 C18       -14.1154   -2.9693   54.4184 C.3     1  ZINC000944933040   -0.1300
     19 C19       -13.3919   -3.7262   53.2644 C.3     1  ZINC000944933040    0.0900
     20 H20       -13.9988   -4.4597   52.7338 H       1  ZINC000944933040    0.1300
     21 O21       -12.2190   -4.2586   53.9632 O.3     1  ZINC000944933040   -0.3600
     22 C22       -11.6871   -3.0146   54.5388 C.3     1  ZINC000944933040    0.1200
     23 H23       -10.7762   -3.1185   55.1282 H       1  ZINC000944933040    0.1400
     24 C24       -11.5626   -2.1210   53.2683 C.3     1  ZINC000944933040   -0.2000
     25 H25       -11.3153   -1.0679   53.4016 H       1  ZINC000944933040    0.1200
     26 C26       -11.2506   -2.8240   51.9457 C.3     1  ZINC000944933040   -0.1300
     27 C27       -12.7591   -2.6139   52.3753 C.3     1  ZINC000944933040   -0.2000
     28 H28       -13.4036   -1.9438   51.8063 H       1  ZINC000944933040    0.1300
     29 C29       -11.7376   -3.3572   58.9303 C.3     1  ZINC000944933040    0.1100
     30 C30       -11.4299   -0.8825   59.5161 C.3     1  ZINC000944933040   -0.1100
     31 C31       -11.6768   -1.0074   61.0288 C.3     1  ZINC000944933040    0.1100
     32 H32       -12.8115    2.5356   64.4492 H       1  ZINC000944933040    0.1400
     33 H33       -11.4067    4.5216   65.1688 H       1  ZINC000944933040    0.1100
     34 H34        -9.9454    3.8008   64.3047 H       1  ZINC000944933040    0.1000
     35 H35       -11.2100    3.8714   62.1070 H       1  ZINC000944933040    0.1000
     36 H36       -12.6713    4.5922   62.9711 H       1  ZINC000944933040    0.1100
     37 H37        -8.7682   -2.6919   61.7537 H       1  ZINC000944933040    0.0900
     38 H38       -10.3368   -3.4736   61.4285 H       1  ZINC000944933040    0.0800
     39 H39        -8.7393   -1.6932   59.5303 H       1  ZINC000944933040    0.0800
     40 H40        -9.0682   -3.4340   59.3459 H       1  ZINC000944933040    0.0900
     41 H41       -10.7107   -1.2771   56.9856 H       1  ZINC000944933040    0.0800
     42 H42        -9.8772   -2.8876   57.1218 H       1  ZINC000944933040    0.0900
     43 H43       -14.7612   -3.6457   54.9784 H       1  ZINC000944933040    0.0800
     44 H44       -14.6839   -2.1247   54.0293 H       1  ZINC000944933040    0.0900
     45 H45       -10.8859   -2.2078   51.1237 H       1  ZINC000944933040    0.1000
     46 H46       -10.8337   -3.8298   51.9980 H       1  ZINC000944933040    0.1000
     47 H47       -11.2446   -4.3267   59.0022 H       1  ZINC000944933040    0.0900
     48 H48       -12.6025   -3.2683   59.5874 H       1  ZINC000944933040    0.0800
     49 H49       -10.7725   -0.0354   59.3206 H       1  ZINC000944933040    0.0800
     50 H50       -12.3804   -0.7333   59.0041 H       1  ZINC000944933040    0.0800
     51 H51       -12.4335   -1.7699   61.2138 H       1  ZINC000944933040    0.0700
     52 H52       -12.0157   -0.0498   61.4241 H       1  ZINC000944933040    0.1000
@<TRIPOS>BOND
     1     1     2    2
     2     2     3    1
     3     2     8   am
     4     3     4    3
     5     4     5    1
     6     5     7    1
     7     5     6    1
     8     5    32    1
     9     6     7    1
    10     6    33    1
    11     6    34    1
    12     7    35    1
    13     7    36    1
    14     8    31    1
    15     8     9    1
    16     9    10    1
    17     9    37    1
    18     9    38    1
    19    10    11    1
    20    10    39    1
    21    10    40    1
    22    11    29    1
    23    11    12    1
    24    11    30    1
    25    12    13    1
    26    12    41    1
    27    12    42    1
    28    13    14   am
    29    13    29    1
    30    14    15    2
    31    14    16    1
    32    16    17    1
    33    16    22    1
    34    16    18    1
    35    18    19    1
    36    18    43    1
    37    18    44    1
    38    19    20    1
    39    19    27    1
    40    19    21    1
    41    21    22    1
    42    22    23    1
    43    22    24    1
    44    24    25    1
    45    24    27    1
    46    24    26    1
    47    26    27    1
    48    26    45    1
    49    26    46    1
    50    27    28    1
    51    29    47    1
    52    29    48    1
    53    30    31    1
    54    30    49    1
    55    30    50    1
    56    31    51    1
    57    31    52    1
@<TRIPOS>SUBSTRUCTURE
     1 ZINC000944933040        1 TEMP              0 ****  ****    0 ROOT


##########                                Name:    ZINC000549659617
##########                DOCK_Rotatable_Bonds:                   9
##########                         Heavy_Atoms:                  28
##########                    Molecular_Weight:              418.48
##########                DOCK_Rotatable_Bonds:                   9
##########                       Formal_Charge:          0.00999956
##########                     HBond_Acceptors:                   9
##########                        HBond_Donors:                   1
##########                         Heavy_Atoms:                  28
##########                          Grid_Score:          -31.439894
##########                     Grid_vdw_energy:          -31.292875
##########                      Grid_es_energy:           -0.147018
##########           Internal_energy_repulsive:           20.666443

@<TRIPOS>MOLECULE
ZINC000549659617
 53 55 1 0 0
SMALL
USER_CHARGES


@<TRIPOS>ATOM
      1 C1        -12.3810    1.8358   57.6546 C.3     1  ZINC000549659617   -0.1500
      2 C2        -11.7222    0.9608   56.5863 C.3     1  ZINC000549659617   -0.1500
      3 C3        -12.7775    0.0570   55.9456 C.3     1  ZINC000549659617    0.1100
      4 N4        -12.2724   -1.3170   55.8859 N.am    1  ZINC000549659617   -0.6100
      5 C5        -12.3509   -2.1116   56.9716 C.2     1  ZINC000549659617    0.7100
      6 O6        -11.9331   -3.2523   56.9216 O.2     1  ZINC000549659617   -0.5700
      7 N7        -12.8926   -1.6418   58.1128 N.am    1  ZINC000549659617   -0.7400
      8 C8        -12.9795   -2.5061   59.2925 C.3     1  ZINC000549659617    0.2300
      9 H9        -13.0820   -3.5440   58.9757 H       1  ZINC000549659617    0.1100
     10 C10       -11.7289   -2.3545   60.1195 C.ar    1  ZINC000549659617   -0.0900
     11 C11       -10.6821   -3.2426   59.9584 C.ar    1  ZINC000549659617   -0.0800
     12 C12        -9.5346   -3.1035   60.7171 C.ar    1  ZINC000549659617   -0.1100
     13 C13        -9.4342   -2.0762   61.6363 C.ar    1  ZINC000549659617   -0.0700
     14 C14       -10.4810   -1.1873   61.7968 C.ar    1  ZINC000549659617   -0.1800
     15 C15       -10.3717   -0.0675   62.7993 C.3     1  ZINC000549659617    0.5100
     16 F16        -9.5395   -0.4635   63.8518 F       1  ZINC000549659617   -0.1800
     17 F17        -9.8315    1.0636   62.1778 F       1  ZINC000549659617   -0.1700
     18 F18       -11.6425    0.2370   63.2987 F       1  ZINC000549659617   -0.1700
     19 C19       -11.6263   -1.3238   61.0352 C.ar    1  ZINC000549659617   -0.0500
     20 C20       -14.1961   -2.1058   60.1295 C.3     1  ZINC000549659617   -0.1700
     21 C21       -15.3754   -3.0796   60.1725 C.3     1  ZINC000549659617   -0.1700
     22 C22       -14.4764   -2.9122   61.3992 C.3     1  ZINC000549659617   -0.1800
     23 C23       -11.6820   -1.8271   54.6459 C.3     1  ZINC000549659617    0.1700
     24 H24       -11.0701   -2.7040   54.8573 H       1  ZINC000549659617    0.1100
     25 C25       -10.8257   -0.7347   53.9816 C.3     1  ZINC000549659617   -0.1400
     26 C26       -10.5027   -1.1693   52.5382 C.3     1  ZINC000549659617   -0.5900
     27 S27       -11.8955   -2.2464   52.0424 S.o2    1  ZINC000549659617    2.3900
     28 O28       -12.6632   -1.5926   51.0411 O.2     1  ZINC000549659617   -0.9300
     29 O29       -11.4146   -3.5645   51.8173 O.2     1  ZINC000549659617   -0.9400
     30 C30       -12.8004   -2.1910   53.6358 C.3     1  ZINC000549659617   -0.6100
     31 H31       -11.6292    2.4797   58.1111 H       1  ZINC000549659617    0.0600
     32 H32       -13.1548    2.4503   57.1945 H       1  ZINC000549659617    0.0600
     33 H33       -12.8282    1.2008   58.4193 H       1  ZINC000549659617    0.0600
     34 H34       -11.2750    1.5958   55.8216 H       1  ZINC000549659617    0.0700
     35 H35       -10.9484    0.3463   57.0465 H       1  ZINC000549659617    0.0700
     36 H36       -13.6892    0.0833   56.5424 H       1  ZINC000549659617    0.0800
     37 H37       -12.9932    0.4089   54.9368 H       1  ZINC000549659617    0.0900
     38 H38       -13.2248   -0.7313   58.1531 H       1  ZINC000549659617    0.4000
     39 H39       -10.7606   -4.0453   59.2402 H       1  ZINC000549659617    0.1300
     40 H40        -8.7170   -3.7978   60.5918 H       1  ZINC000549659617    0.1400
     41 H41        -8.5383   -1.9680   62.2294 H       1  ZINC000549659617    0.1400
     42 H42       -12.4440   -0.6295   61.1606 H       1  ZINC000549659617    0.1400
     43 H43       -14.4223   -1.0397   60.1502 H       1  ZINC000549659617    0.1100
     44 H44       -16.3778   -2.6541   60.2214 H       1  ZINC000549659617    0.0900
     45 H45       -15.2846   -4.0054   59.6046 H       1  ZINC000549659617    0.0900
     46 H46       -13.7941   -3.7279   61.6381 H       1  ZINC000549659617    0.1200
     47 H47       -14.8872   -2.3767   62.2550 H       1  ZINC000549659617    0.0900
     48 H48       -11.3777    0.2051   53.9666 H       1  ZINC000549659617    0.1100
     49 H49        -9.8993   -0.6044   54.5410 H       1  ZINC000549659617    0.0900
     50 H50       -10.4461   -0.2988   51.8845 H       1  ZINC000549659617    0.1400
     51 H51        -9.5658   -1.7256   52.5110 H       1  ZINC000549659617    0.1400
     52 H52       -13.2326   -3.1640   53.8693 H       1  ZINC000549659617    0.1400
     53 H53       -13.5700   -1.4192   53.6170 H       1  ZINC000549659617    0.1600
@<TRIPOS>BOND
     1     1     2    1
     2     1    31    1
     3     1    32    1
     4     1    33    1
     5     2     3    1
     6     2    34    1
     7     2    35    1
     8     3     4    1
     9     3    36    1
    10     3    37    1
    11     4     5   am
    12     4    23    1
    13     5     6    2
    14     5     7   am
    15     7     8    1
    16     7    38    1
    17     8     9    1
    18     8    10    1
    19     8    20    1
    20    10    19   ar
    21    10    11   ar
    22    11    12   ar
    23    11    39    1
    24    12    13   ar
    25    12    40    1
    26    13    14   ar
    27    13    41    1
    28    14    15    1
    29    14    19   ar
    30    15    16    1
    31    15    17    1
    32    15    18    1
    33    19    42    1
    34    20    22    1
    35    20    21    1
    36    20    43    1
    37    21    22    1
    38    21    44    1
    39    21    45    1
    40    22    46    1
    41    22    47    1
    42    23    24    1
    43    23    30    1
    44    23    25    1
    45    25    26    1
    46    25    48    1
    47    25    49    1
    48    26    27    1
    49    26    50    1
    50    26    51    1
    51    27    28    2
    52    27    29    2
    53    27    30    1
    54    30    52    1
    55    30    53    1
@<TRIPOS>SUBSTRUCTURE
     1 ZINC000549659617        1 TEMP              0 ****  ****    0 ROOT


##########                                Name:    ZINC000673213454
##########                DOCK_Rotatable_Bonds:                   7
##########                         Heavy_Atoms:                  26
##########                    Molecular_Weight:             360.453
##########                DOCK_Rotatable_Bonds:                   7
##########                       Formal_Charge:          -0.0100001
##########                     HBond_Acceptors:                   6
##########                        HBond_Donors:                   1
##########                         Heavy_Atoms:                  26
##########                          Grid_Score:          -31.424273
##########                     Grid_vdw_energy:          -30.853077
##########                      Grid_es_energy:           -0.571195
##########           Internal_energy_repulsive:           18.754107

@<TRIPOS>MOLECULE
ZINC000673213454
 54 56 1 0 0
SMALL
USER_CHARGES


@<TRIPOS>ATOM
      1 C1         -9.5699   -1.7178   59.4538 C.3     1  ZINC000673213454   -0.1700
      2 C2        -11.0815   -1.5305   59.5987 C.3     1  ZINC000673213454    0.1400
      3 H3        -11.3998   -0.6730   59.0058 H       1  ZINC000673213454    0.0900
      4 C4        -11.4271   -1.2901   61.0696 C.3     1  ZINC000673213454   -0.1200
      5 C5        -12.9003   -0.8950   61.1894 C.3     1  ZINC000673213454   -0.1300
      6 H6        -13.1940   -0.2626   60.3517 H       1  ZINC000673213454    0.0800
      7 C7        -13.1593   -0.1702   62.5326 C.3     1  ZINC000673213454   -0.1500
      8 C8        -14.5238   -0.7650   62.9646 C.3     1  ZINC000673213454    0.0500
      9 O9        -14.4392   -2.1432   62.5428 O.3     1  ZINC000673213454   -0.3800
     10 C10       -13.7917   -2.1503   61.2561 C.3     1  ZINC000673213454    0.0500
     11 N11       -11.7701   -2.7339   59.1256 N.am    1  ZINC000673213454   -0.6900
     12 C12       -12.7831   -2.6277   58.2429 C.2     1  ZINC000673213454    0.5100
     13 O13       -13.1237   -1.5353   57.8389 O.2     1  ZINC000673213454   -0.5100
     14 C14       -13.4868   -3.8552   57.7617 C.2     1  ZINC000673213454    0.5000
     15 O15       -14.3788   -4.3425   58.4247 O.2     1  ZINC000673213454   -0.5200
     16 N16       -13.1309   -4.4208   56.5913 N.am    1  ZINC000673213454   -0.5800
     17 C17       -13.8437   -5.6318   56.1425 C.3     1  ZINC000673213454    0.1100
     18 C18       -14.1387   -5.5714   54.6366 C.3     1  ZINC000673213454   -0.1700
     19 C19       -14.5536   -4.1643   54.2566 C.3     1  ZINC000673213454    0.0800
     20 O20       -13.3960   -3.4347   53.8712 O.3     1  ZINC000673213454   -0.3800
     21 C21       -12.6548   -2.7804   54.8342 C.3     1  ZINC000673213454    0.1500
     22 H22       -13.2966   -2.0873   55.3780 H       1  ZINC000673213454    0.0600
     23 C23       -11.5362   -2.0164   54.1738 C.ar    1  ZINC000673213454   -0.0800
     24 C24       -11.0100   -2.4597   52.9749 C.ar    1  ZINC000673213454   -0.0900
     25 C25        -9.9840   -1.7588   52.3691 C.ar    1  ZINC000673213454   -0.1300
     26 C26        -9.4843   -0.6145   52.9622 C.ar    1  ZINC000673213454   -0.1200
     27 C27       -10.0110   -0.1707   54.1607 C.ar    1  ZINC000673213454   -0.1300
     28 C28       -11.0401   -0.8692   54.7643 C.ar    1  ZINC000673213454   -0.0900
     29 C29       -12.0648   -3.8122   55.8174 C.3     1  ZINC000673213454    0.0700
     30 H30        -9.2516   -2.5753   60.0467 H       1  ZINC000673213454    0.0600
     31 H31        -9.3237   -1.8890   58.4059 H       1  ZINC000673213454    0.0600
     32 H32        -9.0575   -0.8225   59.8059 H       1  ZINC000673213454    0.0700
     33 H33       -11.2481   -2.2025   61.6386 H       1  ZINC000673213454    0.0800
     34 H34       -10.8026   -0.4881   61.4632 H       1  ZINC000673213454    0.0900
     35 H35       -12.3831   -0.4091   63.2595 H       1  ZINC000673213454    0.0800
     36 H36       -13.2338    0.9072   62.3851 H       1  ZINC000673213454    0.0800
     37 H37       -14.6452   -0.7013   64.0460 H       1  ZINC000673213454    0.0900
     38 H38       -15.3426   -0.2572   62.4549 H       1  ZINC000673213454    0.0600
     39 H39       -14.5401   -2.1195   60.4643 H       1  ZINC000673213454    0.0600
     40 H40       -13.1786   -3.0458   61.1546 H       1  ZINC000673213454    0.0900
     41 H41       -11.4972   -3.6072   59.4476 H       1  ZINC000673213454    0.4100
     42 H42       -13.2289   -6.5071   56.3520 H       1  ZINC000673213454    0.0800
     43 H43       -14.7834   -5.7167   56.6883 H       1  ZINC000673213454    0.0900
     44 H44       -13.2436   -5.8488   54.0800 H       1  ZINC000673213454    0.0800
     45 H45       -14.9447   -6.2648   54.3966 H       1  ZINC000673213454    0.0900
     46 H46       -15.2556   -4.2028   53.4235 H       1  ZINC000673213454    0.1000
     47 H47       -15.0239   -3.6784   55.1116 H       1  ZINC000673213454    0.0500
     48 H48       -11.4004   -3.3537   52.5115 H       1  ZINC000673213454    0.1300
     49 H49        -9.5724   -2.1056   51.4327 H       1  ZINC000673213454    0.1200
     50 H50        -8.6822   -0.0674   52.4894 H       1  ZINC000673213454    0.1200
     51 H51        -9.6205    0.7231   54.6243 H       1  ZINC000673213454    0.1200
     52 H52       -11.4516   -0.5224   55.7006 H       1  ZINC000673213454    0.1300
     53 H53       -11.3684   -3.3140   56.4919 H       1  ZINC000673213454    0.1200
     54 H54       -11.5383   -4.5862   55.2589 H       1  ZINC000673213454    0.0800
@<TRIPOS>BOND
     1     1     2    1
     2     1    30    1
     3     1    31    1
     4     1    32    1
     5     2     3    1
     6     2     4    1
     7     2    11    1
     8     4     5    1
     9     4    33    1
    10     4    34    1
    11     5     6    1
    12     5    10    1
    13     5     7    1
    14     7     8    1
    15     7    35    1
    16     7    36    1
    17     8     9    1
    18     8    37    1
    19     8    38    1
    20     9    10    1
    21    10    39    1
    22    10    40    1
    23    11    12   am
    24    11    41    1
    25    12    13    2
    26    12    14    1
    27    14    15    2
    28    14    16   am
    29    16    29    1
    30    16    17    1
    31    17    18    1
    32    17    42    1
    33    17    43    1
    34    18    19    1
    35    18    44    1
    36    18    45    1
    37    19    20    1
    38    19    46    1
    39    19    47    1
    40    20    21    1
    41    21    22    1
    42    21    23    1
    43    21    29    1
    44    23    28   ar
    45    23    24   ar
    46    24    25   ar
    47    24    48    1
    48    25    26   ar
    49    25    49    1
    50    26    27   ar
    51    26    50    1
    52    27    28   ar
    53    27    51    1
    54    28    52    1
    55    29    53    1
    56    29    54    1
@<TRIPOS>SUBSTRUCTURE
     1 ZINC000673213454        1 TEMP              0 ****  ****    0 ROOT


##########                                Name:    ZINC000446721380
##########                DOCK_Rotatable_Bonds:                   8
##########                         Heavy_Atoms:                  26
##########                    Molecular_Weight:             419.318
##########                DOCK_Rotatable_Bonds:                   8
##########                       Formal_Charge:           0.0199992
##########                     HBond_Acceptors:                   5
##########                        HBond_Donors:                   2
##########                         Heavy_Atoms:                  26
##########                          Grid_Score:          -31.422192
##########                     Grid_vdw_energy:          -30.555502
##########                      Grid_es_energy:           -0.866690
##########           Internal_energy_repulsive:           10.357913

@<TRIPOS>MOLECULE
ZINC000446721380
 49 51 1 0 0
SMALL
USER_CHARGES


@<TRIPOS>ATOM
      1 C1        -12.4776   -3.7433   55.3287 C.3     1  ZINC000446721380   -0.1200
      2 C2        -11.6523   -3.2910   56.5058 C.ar    1  ZINC000446721380   -0.0300
      3 C3        -11.6083   -4.0591   57.6543 C.ar    1  ZINC000446721380   -0.1600
      4 C4        -10.8520   -3.6468   58.7361 C.ar    1  ZINC000446721380   -0.0500
      5 C5        -10.1383   -2.4660   58.6714 C.ar    1  ZINC000446721380   -0.1500
      6 C6         -9.3139   -2.0176   59.8505 C.3     1  ZINC000446721380    0.1900
      7 N7         -9.9587   -0.8670   60.4879 N.am    1  ZINC000446721380   -0.7300
      8 C8         -9.8365   -0.6766   61.8166 C.2     1  ZINC000446721380    0.7100
      9 O9         -9.1897   -1.4589   62.4859 O.2     1  ZINC000446721380   -0.5700
     10 N10       -10.4311    0.3811   62.4033 N.am    1  ZINC000446721380   -0.6900
     11 C11       -10.3042    0.5789   63.7833 C.ar    1  ZINC000446721380    0.2000
     12 C12        -9.0493    0.5580   64.3764 C.ar    1  ZINC000446721380   -0.1200
     13 C13        -8.9272    0.7540   65.7386 C.ar    1  ZINC000446721380   -0.0800
     14 C14       -10.0529    0.9708   66.5113 C.ar    1  ZINC000446721380   -0.1300
     15 C15       -11.3049    0.9919   65.9241 C.ar    1  ZINC000446721380   -0.0700
     16 C16       -11.4336    0.8023   64.5616 C.ar    1  ZINC000446721380   -0.1300
     17 Br17      -13.1455    0.8319   63.7591 Br      1  ZINC000446721380   -0.0500
     18 C18       -10.1808   -1.6933   57.5197 C.ar    1  ZINC000446721380    0.1500
     19 O19        -9.4791   -0.5313   57.4535 O.3     1  ZINC000446721380   -0.3100
     20 C20       -10.1990    0.6398   57.0633 C.3     1  ZINC000446721380    0.0700
     21 C21        -9.2455    1.6191   56.3756 C.3     1  ZINC000446721380   -0.1200
     22 H22        -8.7426    1.1357   55.5380 H       1  ZINC000446721380    0.1000
     23 C23        -8.2093    2.1668   57.3870 C.3     1  ZINC000446721380   -0.1500
     24 C24        -8.1187    3.6603   56.9823 C.3     1  ZINC000446721380    0.0500
     25 O25        -9.4764    3.9947   56.6226 O.3     1  ZINC000446721380   -0.3800
     26 C26       -10.0089    2.8694   55.8976 C.3     1  ZINC000446721380    0.0500
     27 C27       -10.9358   -2.1119   56.4340 C.ar    1  ZINC000446721380   -0.2100
     28 H28       -11.8673   -4.3666   54.6751 H       1  ZINC000446721380    0.0800
     29 H29       -13.3329   -4.3180   55.6841 H       1  ZINC000446721380    0.0700
     30 H30       -12.8295   -2.8725   54.7756 H       1  ZINC000446721380    0.0700
     31 H31       -12.1659   -4.9826   57.7070 H       1  ZINC000446721380    0.1300
     32 H32       -10.8195   -4.2485   59.6324 H       1  ZINC000446721380    0.1300
     33 H33        -9.2337   -2.8333   60.5691 H       1  ZINC000446721380    0.0800
     34 H34        -8.3179   -1.7337   59.5105 H       1  ZINC000446721380    0.0800
     35 H35       -10.4737   -0.2421   59.9538 H       1  ZINC000446721380    0.4000
     36 H36       -10.9471    1.0053   61.8693 H       1  ZINC000446721380    0.4100
     37 H37        -8.1694    0.3883   63.7737 H       1  ZINC000446721380    0.1500
     38 H38        -7.9510    0.7374   66.2004 H       1  ZINC000446721380    0.1300
     39 H39        -9.9544    1.1237   67.5759 H       1  ZINC000446721380    0.1300
     40 H40       -12.1824    1.1608   66.5306 H       1  ZINC000446721380    0.1400
     41 H41       -10.9959    0.3632   56.3728 H       1  ZINC000446721380    0.0700
     42 H42       -10.6306    1.1119   57.9458 H       1  ZINC000446721380    0.0700
     43 H43        -8.5711    2.0622   58.4099 H       1  ZINC000446721380    0.0800
     44 H44        -7.2462    1.6714   57.2640 H       1  ZINC000446721380    0.0900
     45 H45        -7.7843    4.2665   57.8242 H       1  ZINC000446721380    0.1000
     46 H46        -7.4531    3.7870   56.1285 H       1  ZINC000446721380    0.0600
     47 H47        -9.8581    3.0129   54.8277 H       1  ZINC000446721380    0.0600
     48 H48       -11.0718    2.7593   56.1127 H       1  ZINC000446721380    0.0900
     49 H49       -10.9704   -1.5122   55.5364 H       1  ZINC000446721380    0.1300
@<TRIPOS>BOND
     1     1     2    1
     2     1    28    1
     3     1    29    1
     4     1    30    1
     5     2    27   ar
     6     2     3   ar
     7     3     4   ar
     8     3    31    1
     9     4     5   ar
    10     4    32    1
    11     5     6    1
    12     5    18   ar
    13     6     7    1
    14     6    33    1
    15     6    34    1
    16     7     8   am
    17     7    35    1
    18     8     9    2
    19     8    10   am
    20    10    11    1
    21    10    36    1
    22    11    16   ar
    23    11    12   ar
    24    12    13   ar
    25    12    37    1
    26    13    14   ar
    27    13    38    1
    28    14    15   ar
    29    14    39    1
    30    15    16   ar
    31    15    40    1
    32    16    17    1
    33    18    19    1
    34    18    27   ar
    35    19    20    1
    36    20    21    1
    37    20    41    1
    38    20    42    1
    39    21    22    1
    40    21    26    1
    41    21    23    1
    42    23    24    1
    43    23    43    1
    44    23    44    1
    45    24    25    1
    46    24    45    1
    47    24    46    1
    48    25    26    1
    49    26    47    1
    50    26    48    1
    51    27    49    1
@<TRIPOS>SUBSTRUCTURE
     1 ZINC000446721380        1 TEMP              0 ****  ****    0 ROOT


##########                                Name:    ZINC000523153175
##########                DOCK_Rotatable_Bonds:                   9
##########                         Heavy_Atoms:                  30
##########                    Molecular_Weight:             413.603
##########                DOCK_Rotatable_Bonds:                   9
##########                       Formal_Charge:           0.0499987
##########                     HBond_Acceptors:                   5
##########                        HBond_Donors:                   1
##########                         Heavy_Atoms:                  30
##########                          Grid_Score:          -31.401970
##########                     Grid_vdw_energy:          -29.645529
##########                      Grid_es_energy:           -1.756441
##########           Internal_energy_repulsive:           29.966808

@<TRIPOS>MOLECULE
ZINC000523153175
 69 71 1 0 0
SMALL
USER_CHARGES


@<TRIPOS>ATOM
      1 C1         -9.9620    3.9620   50.1547 C.3     1  ZINC000523153175   -0.1500
      2 C2        -11.0627    3.9454   51.2174 C.3     1  ZINC000523153175   -0.0600
      3 C3        -12.2756    3.1808   50.6836 C.3     1  ZINC000523153175   -0.1400
      4 C4        -10.5493    3.2677   52.4616 C.ar    1  ZINC000523153175   -0.0800
      5 C5        -10.7980    3.8220   53.7033 C.ar    1  ZINC000523153175   -0.1100
      6 C6        -10.3272    3.2002   54.8447 C.ar    1  ZINC000523153175   -0.1100
      7 C7         -9.6079    2.0240   54.7443 C.ar    1  ZINC000523153175   -0.0800
      8 C8         -9.0941    1.3465   55.9886 C.3     1  ZINC000523153175   -0.0300
      9 H9         -8.6394    0.3926   55.7215 H       1  ZINC000523153175    0.0800
     10 C10        -8.0491    2.2392   56.6608 C.3     1  ZINC000523153175   -0.1500
     11 C11       -10.2559    1.1051   56.9544 C.3     1  ZINC000523153175   -0.1300
     12 C12        -9.8584    0.0627   57.9675 C.2     1  ZINC000523153175    0.5200
     13 O13        -8.8286   -0.5614   57.8235 O.2     1  ZINC000523153175   -0.5300
     14 N14       -10.6475   -0.1762   59.0338 N.am    1  ZINC000523153175   -0.6200
     15 C15       -11.9045    0.5637   59.2235 C.3     1  ZINC000523153175    0.1100
     16 C16       -13.0314   -0.4456   59.4673 C.3     1  ZINC000523153175    0.0400
     17 N17       -12.6587   -1.3321   60.5778 N.3     1  ZINC000523153175   -0.5100
     18 C18       -13.7804   -2.2019   60.9564 C.3     1  ZINC000523153175    0.0600
     19 H19       -13.3949   -3.1178   61.4042 H       1  ZINC000523153175    0.1100
     20 C20       -14.6705   -1.4756   61.9668 C.3     1  ZINC000523153175   -0.1800
     21 C21       -14.5872   -2.5432   59.7301 C.2     1  ZINC000523153175    0.5200
     22 O22       -15.5456   -1.8649   59.4266 O.2     1  ZINC000523153175   -0.5200
     23 N23       -14.2436   -3.6024   58.9708 N.am    1  ZINC000523153175   -0.7200
     24 C24       -15.0269   -3.9333   57.7778 C.3     1  ZINC000523153175    0.1400
     25 C25       -14.7154   -2.9318   56.6465 C.3     1  ZINC000523153175   -0.1300
     26 C26       -13.6298   -3.6410   55.7994 C.3     1  ZINC000523153175   -0.1300
     27 C27       -14.0893   -5.1200   55.8243 C.3     1  ZINC000523153175   -0.1300
     28 C28       -14.6288   -5.3247   57.2549 C.3     1  ZINC000523153175   -0.1300
     29 C29       -11.4656   -2.1241   60.2502 C.3     1  ZINC000523153175    0.0400
     30 C30       -10.2776   -1.1878   60.0352 C.3     1  ZINC000523153175    0.1200
     31 C31        -9.3604    1.4690   53.5028 C.ar    1  ZINC000523153175   -0.1100
     32 C32        -9.8346    2.0887   52.3616 C.ar    1  ZINC000523153175   -0.1200
     33 H33       -10.3333    4.4522   49.2547 H       1  ZINC000523153175    0.0600
     34 H34        -9.0980    4.5067   50.5350 H       1  ZINC000523153175    0.0600
     35 H35        -9.6708    2.9388   49.9172 H       1  ZINC000523153175    0.0600
     36 H36       -11.3539    4.9686   51.4548 H       1  ZINC000523153175    0.0800
     37 H37       -11.9843    2.1576   50.4461 H       1  ZINC000523153175    0.0600
     38 H38       -13.0596    3.1689   51.4407 H       1  ZINC000523153175    0.0600
     39 H39       -12.6469    3.6710   49.7836 H       1  ZINC000523153175    0.0600
     40 H40       -11.3600    4.7409   53.7818 H       1  ZINC000523153175    0.1200
     41 H41       -10.5209    3.6337   55.8148 H       1  ZINC000523153175    0.1200
     42 H42        -7.6775    1.7493   57.5608 H       1  ZINC000523153175    0.0800
     43 H43        -7.2214    2.4113   55.9726 H       1  ZINC000523153175    0.0600
     44 H44        -8.5039    3.1932   56.9278 H       1  ZINC000523153175    0.0500
     45 H45       -10.5013    2.0351   57.4672 H       1  ZINC000523153175    0.0900
     46 H46       -11.1255    0.7570   56.3970 H       1  ZINC000523153175    0.0900
     47 H47       -11.8132    1.2258   60.0846 H       1  ZINC000523153175    0.0800
     48 H48       -12.1236    1.1484   58.3301 H       1  ZINC000523153175    0.0900
     49 H49       -13.9485    0.0869   59.7191 H       1  ZINC000523153175    0.0900
     50 H50       -13.1901   -1.0383   58.5665 H       1  ZINC000523153175    0.0400
     51 H51       -15.0561   -0.5597   61.5189 H       1  ZINC000523153175    0.0700
     52 H52       -15.5028   -2.1210   62.2475 H       1  ZINC000523153175    0.0700
     53 H53       -14.0869   -1.2287   62.8537 H       1  ZINC000523153175    0.0700
     54 H54       -13.4778   -4.1457   59.2142 H       1  ZINC000523153175    0.4000
     55 H55       -16.0911   -3.9131   58.0127 H       1  ZINC000523153175    0.0900
     56 H56       -15.6059   -2.7449   56.0465 H       1  ZINC000523153175    0.0700
     57 H57       -14.3291   -1.9992   57.0583 H       1  ZINC000523153175    0.0700
     58 H58       -13.6226   -3.2558   54.7798 H       1  ZINC000523153175    0.0700
     59 H59       -12.6483   -3.5336   56.2611 H       1  ZINC000523153175    0.0700
     60 H60       -14.8786   -5.2866   55.0914 H       1  ZINC000523153175    0.0700
     61 H61       -13.2461   -5.7846   55.6360 H       1  ZINC000523153175    0.0700
     62 H62       -13.8528   -5.7538   57.8888 H       1  ZINC000523153175    0.0700
     63 H63       -15.5000   -5.9795   57.2353 H       1  ZINC000523153175    0.0800
     64 H64       -11.2473   -2.8087   61.0697 H       1  ZINC000523153175    0.1000
     65 H65       -11.6462   -2.6934   59.3384 H       1  ZINC000523153175    0.0400
     66 H66        -9.4201   -1.7598   59.6807 H       1  ZINC000523153175    0.1000
     67 H67       -10.0279   -0.6918   60.9732 H       1  ZINC000523153175    0.0800
     68 H68        -8.7988    0.5498   53.4244 H       1  ZINC000523153175    0.1200
     69 H69        -9.6412    1.6551   51.3917 H       1  ZINC000523153175    0.1200
@<TRIPOS>BOND
     1     1     2    1
     2     1    33    1
     3     1    34    1
     4     1    35    1
     5     2     3    1
     6     2     4    1
     7     2    36    1
     8     3    37    1
     9     3    38    1
    10     3    39    1
    11     4    32   ar
    12     4     5   ar
    13     5     6   ar
    14     5    40    1
    15     6     7   ar
    16     6    41    1
    17     7     8    1
    18     7    31   ar
    19     8     9    1
    20     8    10    1
    21     8    11    1
    22    10    42    1
    23    10    43    1
    24    10    44    1
    25    11    12    1
    26    11    45    1
    27    11    46    1
    28    12    13    2
    29    12    14   am
    30    14    30    1
    31    14    15    1
    32    15    16    1
    33    15    47    1
    34    15    48    1
    35    16    17    1
    36    16    49    1
    37    16    50    1
    38    17    18    1
    39    17    29    1
    40    18    19    1
    41    18    20    1
    42    18    21    1
    43    20    51    1
    44    20    52    1
    45    20    53    1
    46    21    22    2
    47    21    23   am
    48    23    24    1
    49    23    54    1
    50    24    28    1
    51    24    25    1
    52    24    55    1
    53    25    26    1
    54    25    56    1
    55    25    57    1
    56    26    27    1
    57    26    58    1
    58    26    59    1
    59    27    28    1
    60    27    60    1
    61    27    61    1
    62    28    62    1
    63    28    63    1
    64    29    30    1
    65    29    64    1
    66    29    65    1
    67    30    66    1
    68    30    67    1
    69    31    32   ar
    70    31    68    1
    71    32    69    1
@<TRIPOS>SUBSTRUCTURE
     1 ZINC000523153175        1 TEMP              0 ****  ****    0 ROOT


##########                                Name:    ZINC000763800048
##########                DOCK_Rotatable_Bonds:                   8
##########                         Heavy_Atoms:                  23
##########                    Molecular_Weight:             329.783
##########                DOCK_Rotatable_Bonds:                   8
##########                       Formal_Charge:           0.0199994
##########                     HBond_Acceptors:                   5
##########                        HBond_Donors:                   1
##########                         Heavy_Atoms:                  23
##########                          Grid_Score:          -31.395893
##########                     Grid_vdw_energy:          -30.311909
##########                      Grid_es_energy:           -1.083984
##########           Internal_energy_repulsive:            5.279253

@<TRIPOS>MOLECULE
ZINC000763800048
 39 40 1 0 0
SMALL
USER_CHARGES


@<TRIPOS>ATOM
      1 C1        -13.1225   -1.6950   50.9515 C.3     1  ZINC000763800048    0.0400
      2 O2        -12.4200   -2.8041   51.5719 O.3     1  ZINC000763800048   -0.3600
      3 C3        -12.4817   -2.8925   52.9099 C.2     1  ZINC000763800048    0.4600
      4 O4        -13.1016   -2.0702   53.5417 O.2     1  ZINC000763800048   -0.4900
      5 C5        -11.7775   -4.0175   53.6237 C.3     1  ZINC000763800048   -0.0700
      6 C6        -12.5247   -4.3558   54.8880 C.ar    1  ZINC000763800048   -0.0600
      7 C7        -13.5473   -5.2860   54.8579 C.ar    1  ZINC000763800048   -0.1200
      8 C8        -14.2355   -5.5993   56.0159 C.ar    1  ZINC000763800048   -0.1000
      9 C9        -13.9029   -4.9841   57.2066 C.ar    1  ZINC000763800048   -0.1100
     10 C10       -12.8758   -4.0494   57.2403 C.ar    1  ZINC000763800048    0.1500
     11 N11       -12.5364   -3.4246   58.4443 N.am    1  ZINC000763800048   -0.6700
     12 C12       -11.3199   -3.6259   58.9885 C.2     1  ZINC000763800048    0.5500
     13 O13       -10.5168   -4.3516   58.4319 O.2     1  ZINC000763800048   -0.5200
     14 C14       -10.9647   -2.9720   60.2485 C.2     1  ZINC000763800048   -0.2100
     15 C15       -11.3428   -1.6976   60.4770 C.2     1  ZINC000763800048   -0.0100
     16 C16       -10.9871   -1.0406   61.7447 C.ar    1  ZINC000763800048   -0.0800
     17 C17        -9.6718   -1.0919   62.2179 C.ar    1  ZINC000763800048   -0.0900
     18 C18        -9.3458   -0.4743   63.4062 C.ar    1  ZINC000763800048   -0.1100
     19 C19       -10.3175    0.1957   64.1318 C.ar    1  ZINC000763800048   -0.0200
     20 Cl20       -9.8979    0.9701   65.6277 Cl      1  ZINC000763800048   -0.0600
     21 C21       -11.6223    0.2509   63.6691 C.ar    1  ZINC000763800048   -0.1100
     22 C22       -11.9614   -0.3572   62.4795 C.ar    1  ZINC000763800048   -0.0800
     23 C23       -12.1835   -3.7406   56.0767 C.ar    1  ZINC000763800048   -0.1300
     24 H24       -12.9921   -1.7415   49.8704 H       1  ZINC000763800048    0.1000
     25 H25       -14.1838   -1.7568   51.1923 H       1  ZINC000763800048    0.0600
     26 H26       -12.7191   -0.7543   51.3261 H       1  ZINC000763800048    0.0600
     27 H27       -11.7434   -4.8937   52.9764 H       1  ZINC000763800048    0.1200
     28 H28       -10.7619   -3.7102   53.8732 H       1  ZINC000763800048    0.1200
     29 H29       -13.8094   -5.7686   53.9281 H       1  ZINC000763800048    0.1200
     30 H30       -15.0342   -6.3258   55.9889 H       1  ZINC000763800048    0.1300
     31 H31       -14.4410   -5.2290   58.1104 H       1  ZINC000763800048    0.1400
     32 H32       -13.1765   -2.8463   58.8879 H       1  ZINC000763800048    0.4100
     33 H33       -10.3998   -3.5097   60.9955 H       1  ZINC000763800048    0.1300
     34 H34       -11.9066   -1.1594   59.7294 H       1  ZINC000763800048    0.1400
     35 H35        -8.9135   -1.6145   61.6535 H       1  ZINC000763800048    0.1400
     36 H36        -8.3306   -0.5131   63.7726 H       1  ZINC000763800048    0.1400
     37 H37       -12.3745    0.7750   64.2400 H       1  ZINC000763800048    0.1400
     38 H38       -12.9788   -0.3131   62.1199 H       1  ZINC000763800048    0.1400
     39 H39       -11.3841   -3.0146   56.0997 H       1  ZINC000763800048    0.1300
@<TRIPOS>BOND
     1     1     2    1
     2     1    24    1
     3     1    25    1
     4     1    26    1
     5     2     3    1
     6     3     4    2
     7     3     5    1
     8     5     6    1
     9     5    27    1
    10     5    28    1
    11     6    23   ar
    12     6     7   ar
    13     7     8   ar
    14     7    29    1
    15     8     9   ar
    16     8    30    1
    17     9    10   ar
    18     9    31    1
    19    10    11    1
    20    10    23   ar
    21    11    12   am
    22    11    32    1
    23    12    13    2
    24    12    14    1
    25    14    15    2
    26    14    33    1
    27    15    16    1
    28    15    34    1
    29    16    22   ar
    30    16    17   ar
    31    17    18   ar
    32    17    35    1
    33    18    19   ar
    34    18    36    1
    35    19    20    1
    36    19    21   ar
    37    21    22   ar
    38    21    37    1
    39    22    38    1
    40    23    39    1
@<TRIPOS>SUBSTRUCTURE
     1 ZINC000763800048        1 TEMP              0 ****  ****    0 ROOT


##########                                Name:    ZINC000484424341
##########                DOCK_Rotatable_Bonds:                   7
##########                         Heavy_Atoms:                  26
##########                    Molecular_Weight:             359.425
##########                DOCK_Rotatable_Bonds:                   7
##########                       Formal_Charge:          -0.0100009
##########                     HBond_Acceptors:                   7
##########                        HBond_Donors:                   1
##########                         Heavy_Atoms:                  26
##########                          Grid_Score:          -31.387239
##########                     Grid_vdw_energy:          -31.230217
##########                      Grid_es_energy:           -0.157022
##########           Internal_energy_repulsive:           13.652422

@<TRIPOS>MOLECULE
ZINC000484424341
 51 53 1 0 0
SMALL
USER_CHARGES


@<TRIPOS>ATOM
      1 C1        -11.2686   -3.7192   53.8602 C.3     1  ZINC000484424341    0.0300
      2 O2        -11.4456   -2.8853   55.0071 O.3     1  ZINC000484424341   -0.3800
      3 C3        -11.7113   -3.6044   56.2131 C.3     1  ZINC000484424341    0.1300
      4 H4        -11.3978   -4.6415   56.0942 H       1  ZINC000484424341    0.0700
      5 C5        -13.2101   -3.5560   56.5160 C.3     1  ZINC000484424341   -0.1700
      6 C6        -10.9483   -2.9763   57.3508 C.ar    1  ZINC000484424341   -0.0700
      7 C7        -10.3027   -3.7771   58.2747 C.ar    1  ZINC000484424341   -0.1000
      8 C8         -9.6012   -3.2048   59.3204 C.ar    1  ZINC000484424341   -0.1000
      9 C9         -9.5435   -1.8310   59.4450 C.ar    1  ZINC000484424341   -0.1100
     10 C10       -10.1910   -1.0231   58.5183 C.ar    1  ZINC000484424341    0.1400
     11 N11       -10.1343    0.3676   58.6411 N.am    1  ZINC000484424341   -0.6400
     12 C12        -9.5862    1.1091   57.6581 C.2     1  ZINC000484424341    0.5100
     13 O13        -9.1421    0.5689   56.6661 O.2     1  ZINC000484424341   -0.4900
     14 C14        -9.5256    2.5956   57.7894 C.2     1  ZINC000484424341    0.5200
     15 O15       -10.5202    3.2186   58.0987 O.2     1  ZINC000484424341   -0.5200
     16 N16        -8.3662    3.2452   57.5646 N.am    1  ZINC000484424341   -0.5800
     17 C17        -8.1664    4.6987   57.6580 C.3     1  ZINC000484424341    0.1100
     18 C18        -6.6814    4.9782   57.3448 C.3     1  ZINC000484424341   -0.1500
     19 C19        -6.0004    3.6172   57.6471 C.3     1  ZINC000484424341    0.1500
     20 H20        -5.7978    3.5099   58.7129 H       1  ZINC000484424341    0.1100
     21 N21        -4.7728    3.4587   56.8636 N.am    1  ZINC000484424341   -0.6100
     22 C22        -4.5227    4.1138   55.5744 C.3     1  ZINC000484424341    0.1000
     23 C23        -2.9971    4.0172   55.3520 C.3     1  ZINC000484424341   -0.1300
     24 C24        -2.6340    2.7721   56.1940 C.3     1  ZINC000484424341   -0.1600
     25 C25        -3.7283    2.6989   57.2360 C.2     1  ZINC000484424341    0.5200
     26 O26        -3.6741    2.0441   58.2553 O.2     1  ZINC000484424341   -0.5200
     27 C27        -7.0869    2.6152   57.1907 C.3     1  ZINC000484424341    0.0900
     28 C28       -10.8899   -1.6011   57.4662 C.ar    1  ZINC000484424341   -0.1300
     29 H29       -12.1730   -4.3042   53.6933 H       1  ZINC000484424341    0.0400
     30 H30       -11.0712   -3.0981   52.9864 H       1  ZINC000484424341    0.0900
     31 H31       -10.4265   -4.3911   54.0261 H       1  ZINC000484424341    0.0400
     32 H32       -13.5236   -2.5189   56.6350 H       1  ZINC000484424341    0.0700
     33 H33       -13.7620   -4.0103   55.6932 H       1  ZINC000484424341    0.0600
     34 H34       -13.4128   -4.1045   57.4361 H       1  ZINC000484424341    0.0700
     35 H35       -10.3465   -4.8520   58.1799 H       1  ZINC000484424341    0.1300
     36 H36        -9.0985   -3.8334   60.0406 H       1  ZINC000484424341    0.1300
     37 H37        -8.9959   -1.3847   60.2620 H       1  ZINC000484424341    0.1300
     38 H38       -10.4894    0.7993   59.4338 H       1  ZINC000484424341    0.4200
     39 H39        -8.8006    5.2074   56.9319 H       1  ZINC000484424341    0.0800
     40 H40        -8.4038    5.0416   58.6651 H       1  ZINC000484424341    0.0800
     41 H41        -6.5527    5.2494   56.2970 H       1  ZINC000484424341    0.0900
     42 H42        -6.2899    5.7586   57.9973 H       1  ZINC000484424341    0.0900
     43 H43        -5.0538    3.5933   54.7775 H       1  ZINC000484424341    0.0800
     44 H44        -4.8325    5.1581   55.6156 H       1  ZINC000484424341    0.0800
     45 H45        -2.7657    3.8569   54.2989 H       1  ZINC000484424341    0.0900
     46 H46        -2.4908    4.9052   55.7303 H       1  ZINC000484424341    0.0800
     47 H47        -2.6341    1.8774   55.5715 H       1  ZINC000484424341    0.1100
     48 H48        -1.6637    2.9049   56.6724 H       1  ZINC000484424341    0.1000
     49 H49        -6.9646    1.6623   57.7054 H       1  ZINC000484424341    0.0900
     50 H50        -7.0417    2.4726   56.1109 H       1  ZINC000484424341    0.0900
     51 H51       -11.3941   -0.9761   56.7439 H       1  ZINC000484424341    0.1300
@<TRIPOS>BOND
     1     1     2    1
     2     1    29    1
     3     1    30    1
     4     1    31    1
     5     2     3    1
     6     3     4    1
     7     3     5    1
     8     3     6    1
     9     5    32    1
    10     5    33    1
    11     5    34    1
    12     6    28   ar
    13     6     7   ar
    14     7     8   ar
    15     7    35    1
    16     8     9   ar
    17     8    36    1
    18     9    10   ar
    19     9    37    1
    20    10    11    1
    21    10    28   ar
    22    11    12   am
    23    11    38    1
    24    12    13    2
    25    12    14    1
    26    14    15    2
    27    14    16   am
    28    16    27    1
    29    16    17    1
    30    17    18    1
    31    17    39    1
    32    17    40    1
    33    18    19    1
    34    18    41    1
    35    18    42    1
    36    19    20    1
    37    19    21    1
    38    19    27    1
    39    21    25   am
    40    21    22    1
    41    22    23    1
    42    22    43    1
    43    22    44    1
    44    23    24    1
    45    23    45    1
    46    23    46    1
    47    24    25    1
    48    24    47    1
    49    24    48    1
    50    25    26    2
    51    27    49    1
    52    27    50    1
    53    28    51    1
@<TRIPOS>SUBSTRUCTURE
     1 ZINC000484424341        1 TEMP              0 ****  ****    0 ROOT


##########                                Name:    ZINC001139743874
##########                DOCK_Rotatable_Bonds:                   5
##########                         Heavy_Atoms:                  28
##########                    Molecular_Weight:             382.506
##########                DOCK_Rotatable_Bonds:                   5
##########                       Formal_Charge:           0.0199992
##########                     HBond_Acceptors:                   6
##########                        HBond_Donors:                   0
##########                         Heavy_Atoms:                  28
##########                          Grid_Score:          -31.370108
##########                     Grid_vdw_energy:          -31.120783
##########                      Grid_es_energy:           -0.249325
##########           Internal_energy_repulsive:           18.492559

@<TRIPOS>MOLECULE
ZINC001139743874
 58 61 1 0 0
SMALL
USER_CHARGES


@<TRIPOS>ATOM
      1 C1        -15.4369   -0.8306   51.7415 C.3     1  ZINC001139743874   -0.1800
      2 C2        -15.4600   -2.0204   50.7797 C.3     1  ZINC001139743874    0.1400
      3 C3        -16.8618   -2.1682   50.1850 C.3     1  ZINC001139743874   -0.1800
      4 C4        -14.4505   -1.7858   49.6542 C.3     1  ZINC001139743874   -0.1400
      5 O5        -15.1095   -3.2315   51.4997 O.3     1  ZINC001139743874   -0.3600
      6 C6        -15.5692   -3.3484   52.7597 C.2     1  ZINC001139743874    0.6500
      7 O7        -16.7547   -3.2115   52.9890 O.2     1  ZINC001139743874   -0.5700
      8 N8        -14.7148   -3.6171   53.7667 N.am    1  ZINC001139743874   -0.5900
      9 C9        -15.1855   -3.7444   55.1095 C.3     1  ZINC001139743874    0.1000
     10 C10       -15.3028   -2.4178   55.9127 C.3     1  ZINC001139743874   -0.1300
     11 C11       -14.0808   -1.5106   55.5882 C.3     1  ZINC001139743874   -0.0900
     12 C12       -12.8221   -2.3026   55.4509 C.3     1  ZINC001139743874   -0.0800
     13 C13       -11.6011   -1.7514   56.1969 C.3     1  ZINC001139743874    0.0100
     14 N14       -12.0007   -2.6533   57.3013 N.3     1  ZINC001139743874   -0.4700
     15 C15       -10.8310   -3.3291   57.8783 C.3     1  ZINC001139743874    0.0600
     16 C16       -10.4808   -2.6890   59.1969 C.ar    1  ZINC001139743874   -0.1200
     17 C17        -9.8765   -3.4449   60.1996 C.ar    1  ZINC001139743874    0.1500
     18 N18        -9.5582   -2.9207   61.3584 N.ar    1  ZINC001139743874   -0.4600
     19 C19        -9.7998   -1.6357   61.6281 C.ar    1  ZINC001139743874    0.0800
     20 C20        -9.4559   -1.0750   62.8745 C.ar    1  ZINC001139743874   -0.0400
     21 C21        -9.7298    0.2453   63.0863 C.ar    1  ZINC001139743874   -0.1600
     22 C22       -10.3344    1.0014   62.0833 C.ar    1  ZINC001139743874    0.1300
     23 N23       -10.6531    0.4772   60.9249 N.ar    1  ZINC001139743874   -0.4700
     24 C24       -10.4113   -0.8080   60.6551 C.ar    1  ZINC001139743874    0.0800
     25 C25       -10.7503   -1.3672   59.4071 C.ar    1  ZINC001139743874   -0.0400
     26 C26       -12.7098   -3.5394   56.3499 C.3     1  ZINC001139743874    0.0000
     27 C27       -12.5564   -2.5929   53.9705 C.3     1  ZINC001139743874   -0.1300
     28 C28       -13.2520   -3.7950   53.5022 C.3     1  ZINC001139743874    0.1400
     29 H29       -16.1561   -0.9976   52.5434 H       1  ZINC001139743874    0.0900
     30 H30       -14.4382   -0.7253   52.1652 H       1  ZINC001139743874    0.0600
     31 H31       -15.7000    0.0787   51.2010 H       1  ZINC001139743874    0.0700
     32 H32       -17.1250   -1.2589   49.6445 H       1  ZINC001139743874    0.0700
     33 H33       -16.8783   -3.0157   49.4997 H       1  ZINC001139743874    0.0600
     34 H34       -17.5810   -2.3352   50.9868 H       1  ZINC001139743874    0.0900
     35 H35       -13.4518   -1.6805   50.0779 H       1  ZINC001139743874    0.0700
     36 H36       -14.4670   -2.6334   48.9690 H       1  ZINC001139743874    0.0700
     37 H37       -14.7136   -0.8766   49.1137 H       1  ZINC001139743874    0.0800
     38 H38       -16.1683   -4.2151   55.0830 H       1  ZINC001139743874    0.0700
     39 H39       -14.5090   -4.4094   55.6463 H       1  ZINC001139743874    0.0900
     40 H40       -16.2223   -1.9033   55.6333 H       1  ZINC001139743874    0.0700
     41 H41       -15.3187   -2.6389   56.9800 H       1  ZINC001139743874    0.0800
     42 H42       -14.2702   -0.9804   54.6549 H       1  ZINC001139743874    0.0600
     43 H43       -13.9564   -0.7824   56.3897 H       1  ZINC001139743874    0.0700
     44 H44       -10.6488   -2.0145   55.7367 H       1  ZINC001139743874    0.0700
     45 H45       -11.6779   -0.6925   56.4440 H       1  ZINC001139743874    0.0900
     46 H46       -11.0612   -4.3829   58.0358 H       1  ZINC001139743874    0.0600
     47 H47        -9.9862   -3.2399   57.1954 H       1  ZINC001139743874    0.0900
     48 H48        -9.6655   -4.4884   60.0178 H       1  ZINC001139743874    0.1700
     49 H49        -8.9884   -1.6741   63.6419 H       1  ZINC001139743874    0.1500
     50 H50        -9.4784    0.7043   64.0310 H       1  ZINC001139743874    0.1500
     51 H51       -10.5458    2.0449   62.2652 H       1  ZINC001139743874    0.1700
     52 H52       -11.2146   -0.7671   58.6385 H       1  ZINC001139743874    0.1400
     53 H53       -13.6688   -3.9033   56.7190 H       1  ZINC001139743874    0.1000
     54 H54       -12.0842   -4.3295   55.9348 H       1  ZINC001139743874    0.0700
     55 H55       -12.8868   -1.7392   53.3787 H       1  ZINC001139743874    0.0700
     56 H56       -11.4847   -2.7275   53.8242 H       1  ZINC001139743874    0.0800
     57 H57       -12.8803   -4.6673   54.0399 H       1  ZINC001139743874    0.0800
     58 H58       -13.0843   -3.9233   52.4329 H       1  ZINC001139743874    0.1000
@<TRIPOS>BOND
     1     1     2    1
     2     1    29    1
     3     1    30    1
     4     1    31    1
     5     2     3    1
     6     2     4    1
     7     2     5    1
     8     3    32    1
     9     3    33    1
    10     3    34    1
    11     4    35    1
    12     4    36    1
    13     4    37    1
    14     5     6    1
    15     6     7    2
    16     6     8   am
    17     8    28    1
    18     8     9    1
    19     9    10    1
    20     9    38    1
    21     9    39    1
    22    10    11    1
    23    10    40    1
    24    10    41    1
    25    11    12    1
    26    11    42    1
    27    11    43    1
    28    12    26    1
    29    12    13    1
    30    12    27    1
    31    13    14    1
    32    13    44    1
    33    13    45    1
    34    14    15    1
    35    14    26    1
    36    15    16    1
    37    15    46    1
    38    15    47    1
    39    16    25   ar
    40    16    17   ar
    41    17    18   ar
    42    17    48    1
    43    18    19   ar
    44    19    24   ar
    45    19    20   ar
    46    20    21   ar
    47    20    49    1
    48    21    22   ar
    49    21    50    1
    50    22    23   ar
    51    22    51    1
    52    23    24   ar
    53    24    25   ar
    54    25    52    1
    55    26    53    1
    56    26    54    1
    57    27    28    1
    58    27    55    1
    59    27    56    1
    60    28    57    1
    61    28    58    1
@<TRIPOS>SUBSTRUCTURE
     1 ZINC001139743874        1 TEMP              0 ****  ****    0 ROOT


##########                                Name:    ZINC000859202493
##########                DOCK_Rotatable_Bonds:                  11
##########                         Heavy_Atoms:                  25
##########                    Molecular_Weight:             382.404
##########                DOCK_Rotatable_Bonds:                  11
##########                       Formal_Charge:          -0.0200009
##########                     HBond_Acceptors:                  10
##########                        HBond_Donors:                   3
##########                         Heavy_Atoms:                  25
##########                          Grid_Score:          -31.335896
##########                     Grid_vdw_energy:          -29.373178
##########                      Grid_es_energy:           -1.962716
##########           Internal_energy_repulsive:           13.499826

@<TRIPOS>MOLECULE
ZINC000859202493
 46 46 1 0 0
SMALL
USER_CHARGES


@<TRIPOS>ATOM
      1 C1        -14.7622    1.7541   59.5856 C.3     1  ZINC000859202493   -0.1500
      2 C2        -14.7457    1.1748   61.0015 C.3     1  ZINC000859202493   -0.1200
      3 C3        -13.6107    0.1560   61.1225 C.3     1  ZINC000859202493   -0.1000
      4 H4        -13.5962   -0.4788   60.2365 H       1  ZINC000859202493    0.0700
      5 C5        -13.8314   -0.7083   62.3656 C.3     1  ZINC000859202493   -0.1600
      6 C6        -12.2751    0.8924   61.2440 C.3     1  ZINC000859202493   -0.1200
      7 C7        -11.1308   -0.1232   61.2437 C.3     1  ZINC000859202493    0.1600
      8 H8        -11.5163   -1.1048   60.9681 H       1  ZINC000859202493    0.1000
      9 C9        -10.5104   -0.1929   62.6406 C.3     1  ZINC000859202493    0.0500
     10 O10        -9.4116   -1.1065   62.6288 O.3     1  ZINC000859202493   -0.5700
     11 N11       -10.1110    0.2903   60.2767 N.am    1  ZINC000859202493   -1.1000
     12 S12       -10.2595   -0.1363   58.6834 S.o2    1  ZINC000859202493    2.6900
     13 O13       -11.5477    0.2985   58.2700 O.2     1  ZINC000859202493   -0.9500
     14 O14        -9.0585    0.2742   58.0445 O.2     1  ZINC000859202493   -0.9500
     15 C15       -10.2830   -1.8969   58.6148 C.ar    1  ZINC000859202493   -0.6600
     16 C16        -9.4615   -2.6314   59.4498 C.ar    1  ZINC000859202493   -0.0300
     17 C17        -9.4766   -4.0134   59.3987 C.ar    1  ZINC000859202493   -0.1100
     18 C18       -10.3133   -4.6640   58.5134 C.ar    1  ZINC000859202493   -0.0600
     19 C19       -11.1401   -3.9290   57.6736 C.ar    1  ZINC000859202493    0.1200
     20 N20       -11.9893   -4.5852   56.7758 N.am    1  ZINC000859202493   -0.6500
     21 C21       -13.2880   -4.7669   57.0867 C.2     1  ZINC000859202493    0.4800
     22 O22       -13.7207   -4.3615   58.1447 O.2     1  ZINC000859202493   -0.4500
     23 C23       -14.2026   -5.4736   56.1197 C.3     1  ZINC000859202493    0.4600
     24 F24       -13.4724   -5.8750   54.9959 F       1  ZINC000859202493   -0.1500
     25 F25       -14.7588   -6.5973   56.7402 F       1  ZINC000859202493   -0.1600
     26 F26       -15.2255   -4.6046   55.7252 F       1  ZINC000859202493   -0.1600
     27 C27       -11.1263   -2.5417   57.7310 C.ar    1  ZINC000859202493   -0.0300
     28 H28       -15.5708    2.4799   59.4994 H       1  ZINC000859202493    0.0500
     29 H29       -13.8103    2.2449   59.3827 H       1  ZINC000859202493    0.0500
     30 H30       -14.9172    0.9503   58.8659 H       1  ZINC000859202493    0.0600
     31 H31       -14.5906    1.9786   61.7212 H       1  ZINC000859202493    0.0600
     32 H32       -15.6975    0.6840   61.2044 H       1  ZINC000859202493    0.0600
     33 H33       -13.0227   -1.4341   62.4517 H       1  ZINC000859202493    0.0500
     34 H34       -13.8458   -0.0734   63.2515 H       1  ZINC000859202493    0.0600
     35 H35       -14.7828   -1.2329   62.2790 H       1  ZINC000859202493    0.0600
     36 H36       -12.1572    1.5727   60.4005 H       1  ZINC000859202493    0.0800
     37 H37       -12.2566    1.4604   62.1741 H       1  ZINC000859202493    0.0800
     38 H38       -10.1572    0.7965   62.9312 H       1  ZINC000859202493    0.0600
     39 H39       -11.2598   -0.5352   63.3543 H       1  ZINC000859202493    0.0600
     40 H40        -8.8181   -1.0176   63.3869 H       1  ZINC000859202493    0.3800
     41 H41        -9.3489    0.8140   60.5695 H       1  ZINC000859202493    0.4200
     42 H42        -8.8063   -2.1250   60.1430 H       1  ZINC000859202493    0.1500
     43 H43        -8.8332   -4.5844   60.0517 H       1  ZINC000859202493    0.1400
     44 H44       -10.3243   -5.7432   58.4737 H       1  ZINC000859202493    0.1400
     45 H45       -11.6432   -4.9093   55.9295 H       1  ZINC000859202493    0.4200
     46 H46       -11.7681   -1.9673   57.0794 H       1  ZINC000859202493    0.1500
@<TRIPOS>BOND
     1     1     2    1
     2     1    28    1
     3     1    29    1
     4     1    30    1
     5     2     3    1
     6     2    31    1
     7     2    32    1
     8     3     4    1
     9     3     5    1
    10     3     6    1
    11     5    33    1
    12     5    34    1
    13     5    35    1
    14     6     7    1
    15     6    36    1
    16     6    37    1
    17     7     8    1
    18     7     9    1
    19     7    11    1
    20     9    10    1
    21     9    38    1
    22     9    39    1
    23    10    40    1
    24    11    12   am
    25    11    41    1
    26    12    13    2
    27    12    14    2
    28    12    15    1
    29    15    27   ar
    30    15    16   ar
    31    16    17   ar
    32    16    42    1
    33    17    18   ar
    34    17    43    1
    35    18    19   ar
    36    18    44    1
    37    19    20    1
    38    19    27   ar
    39    20    21   am
    40    20    45    1
    41    21    22    2
    42    21    23    1
    43    23    24    1
    44    23    25    1
    45    23    26    1
    46    27    46    1
@<TRIPOS>SUBSTRUCTURE
     1 ZINC000859202493        1 TEMP              0 ****  ****    0 ROOT


##########                                Name:    ZINC001045463759
##########                DOCK_Rotatable_Bonds:                   6
##########                         Heavy_Atoms:                  24
##########                    Molecular_Weight:             336.385
##########                DOCK_Rotatable_Bonds:                   6
##########                       Formal_Charge:          1.3411e-07
##########                     HBond_Acceptors:                   7
##########                        HBond_Donors:                   2
##########                         Heavy_Atoms:                  24
##########                          Grid_Score:          -31.333410
##########                     Grid_vdw_energy:          -30.708065
##########                      Grid_es_energy:           -0.625345
##########           Internal_energy_repulsive:           10.695647

@<TRIPOS>MOLECULE
ZINC001045463759
 46 49 1 0 0
SMALL
USER_CHARGES


@<TRIPOS>ATOM
      1 O1        -14.6007   -3.2350   60.5364 O.2     1  ZINC001045463759   -0.5100
      2 C2        -14.4548   -2.0390   60.3973 C.2     1  ZINC001045463759    0.5400
      3 N3        -13.2206   -1.5266   60.2220 N.am    1  ZINC001045463759   -0.7200
      4 C4        -12.0547   -2.4135   60.2057 C.3     1  ZINC001045463759    0.1400
      5 H5        -12.2770   -3.3163   60.7748 H       1  ZINC001045463759    0.1000
      6 C6        -10.8590   -1.6957   60.8348 C.3     1  ZINC001045463759   -0.1300
      7 C7         -9.6414   -2.6220   60.8179 C.3     1  ZINC001045463759   -0.1200
      8 C8         -9.3075   -2.9991   59.3731 C.3     1  ZINC001045463759   -0.1200
      9 C9        -10.5033   -3.7169   58.7440 C.3     1  ZINC001045463759   -0.1300
     10 C10       -11.7208   -2.7907   58.7610 C.3     1  ZINC001045463759    0.1500
     11 H11       -11.4985   -1.8879   58.1921 H       1  ZINC001045463759    0.0900
     12 N12       -12.8658   -3.4780   58.1586 N.pl3   1  ZINC001045463759   -0.7100
     13 C13       -12.8514   -3.7970   56.8106 C.ar    1  ZINC001045463759    0.4400
     14 C14       -13.4248   -4.9865   56.3570 C.ar    1  ZINC001045463759   -0.3000
     15 C15       -13.3848   -5.2591   55.0036 C.ar    1  ZINC001045463759    0.1800
     16 N16       -12.8083   -4.3899   54.1856 N.ar    1  ZINC001045463759   -0.5600
     17 C17       -12.2757   -3.2755   54.6450 C.ar    1  ZINC001045463759    0.4000
     18 C18       -11.6311   -2.3178   53.6762 C.3     1  ZINC001045463759   -0.1100
     19 C19       -10.9002   -2.9159   52.4725 C.3     1  ZINC001045463759   -0.1500
     20 C20       -12.2429   -2.2088   52.2781 C.3     1  ZINC001045463759   -0.1500
     21 N21       -12.2960   -2.9725   55.9271 N.ar    1  ZINC001045463759   -0.5700
     22 C22       -15.6541   -1.1266   60.4140 C.3     1  ZINC001045463759   -0.2000
     23 H23       -15.6885   -0.4106   61.2352 H       1  ZINC001045463759    0.1500
     24 C24       -16.2226   -0.6822   59.0649 C.3     1  ZINC001045463759   -0.1500
     25 C25       -16.9840   -1.6987   59.9193 C.3     1  ZINC001045463759    0.2300
     26 F26       -16.9936   -3.0288   59.4855 F       1  ZINC001045463759   -0.1400
     27 F27       -18.1514   -1.2626   60.5551 F       1  ZINC001045463759   -0.1500
     28 H28       -13.1042   -0.5705   60.1068 H       1  ZINC001045463759    0.4000
     29 H29       -10.6367   -0.7930   60.2659 H       1  ZINC001045463759    0.0700
     30 H30       -11.0968   -1.4271   61.8642 H       1  ZINC001045463759    0.0800
     31 H31        -8.7894   -2.1107   61.2661 H       1  ZINC001045463759    0.0700
     32 H32        -9.8636   -3.5248   61.3869 H       1  ZINC001045463759    0.0700
     33 H33        -9.0852   -2.0964   58.8042 H       1  ZINC001045463759    0.0700
     34 H34        -8.4401   -3.6590   59.3611 H       1  ZINC001045463759    0.0700
     35 H35       -10.2655   -3.9856   57.7148 H       1  ZINC001045463759    0.0700
     36 H36       -10.7255   -4.6197   59.3130 H       1  ZINC001045463759    0.0700
     37 H37       -13.6340   -3.7097   58.7037 H       1  ZINC001045463759    0.4100
     38 H38       -13.8876   -5.6763   57.0472 H       1  ZINC001045463759    0.1400
     39 H39       -13.8179   -6.1696   54.6164 H       1  ZINC001045463759    0.1700
     40 H40       -11.2177   -1.4107   54.1167 H       1  ZINC001045463759    0.1300
     41 H41       -10.0053   -2.4022   52.1211 H       1  ZINC001045463759    0.1000
     42 H42       -10.8854   -4.0020   52.3815 H       1  ZINC001045463759    0.1100
     43 H43       -13.1116   -2.8297   52.0590 H       1  ZINC001045463759    0.1000
     44 H44       -12.2315   -1.2300   51.7986 H       1  ZINC001045463759    0.1000
     45 H45       -16.6314    0.3260   58.9986 H       1  ZINC001045463759    0.1400
     46 H46       -15.7292   -1.0498   58.1652 H       1  ZINC001045463759    0.1300
@<TRIPOS>BOND
     1     1     2    2
     2     2     3   am
     3     2    22    1
     4     3     4    1
     5     3    28    1
     6     4     5    1
     7     4    10    1
     8     4     6    1
     9     6     7    1
    10     6    29    1
    11     6    30    1
    12     7     8    1
    13     7    31    1
    14     7    32    1
    15     8     9    1
    16     8    33    1
    17     8    34    1
    18     9    10    1
    19     9    35    1
    20     9    36    1
    21    10    11    1
    22    10    12    1
    23    12    13    1
    24    12    37    1
    25    13    21   ar
    26    13    14   ar
    27    14    15   ar
    28    14    38    1
    29    15    16   ar
    30    15    39    1
    31    16    17   ar
    32    17    18    1
    33    17    21   ar
    34    18    20    1
    35    18    19    1
    36    18    40    1
    37    19    20    1
    38    19    41    1
    39    19    42    1
    40    20    43    1
    41    20    44    1
    42    22    23    1
    43    22    25    1
    44    22    24    1
    45    24    25    1
    46    24    45    1
    47    24    46    1
    48    25    26    1
    49    25    27    1
@<TRIPOS>SUBSTRUCTURE
     1 ZINC001045463759        1 TEMP              0 ****  ****    0 ROOT


##########                                Name:    ZINC000337709254
##########                DOCK_Rotatable_Bonds:                   7
##########                         Heavy_Atoms:                  22
##########                    Molecular_Weight:              329.42
##########                DOCK_Rotatable_Bonds:                   7
##########                       Formal_Charge:           0.0300004
##########                     HBond_Acceptors:                   8
##########                        HBond_Donors:                   2
##########                         Heavy_Atoms:                  22
##########                          Grid_Score:          -31.315706
##########                     Grid_vdw_energy:          -30.573929
##########                      Grid_es_energy:           -0.741778
##########           Internal_energy_repulsive:            8.400528

@<TRIPOS>MOLECULE
ZINC000337709254
 45 46 1 0 0
SMALL
USER_CHARGES


@<TRIPOS>ATOM
      1 C1         -8.2392    3.0712   56.9291 C.3     1  ZINC000337709254   -0.6700
      2 S2         -9.2076    1.5928   56.5203 S.o2    1  ZINC000337709254    2.6100
      3 O3        -10.5361    1.9497   56.1640 O.2     1  ZINC000337709254   -0.9500
      4 O4         -8.4459    0.7053   55.7132 O.2     1  ZINC000337709254   -0.9500
      5 N5         -9.3718    0.7947   57.9619 N.am    1  ZINC000337709254   -1.1200
      6 C6        -10.1114   -0.4686   58.0197 C.3     1  ZINC000337709254    0.1200
      7 C7         -9.7248   -1.2283   59.2903 C.3     1  ZINC000337709254   -0.1100
      8 H8         -8.6428   -1.2234   59.4222 H       1  ZINC000337709254    0.1100
      9 C9        -10.4244   -0.6095   60.5259 C.3     1  ZINC000337709254   -0.1200
     10 C10       -10.4365   -1.7839   61.5357 C.3     1  ZINC000337709254   -0.1200
     11 C11       -10.7112   -3.0279   60.6657 C.3     1  ZINC000337709254   -0.1400
     12 C12       -10.2556   -2.6757   59.2366 C.3     1  ZINC000337709254    0.1500
     13 H13        -9.4652   -3.3555   58.9184 H       1  ZINC000337709254    0.1000
     14 N14       -11.3901   -2.7590   58.3134 N.am    1  ZINC000337709254   -0.7200
     15 C15       -11.7202   -3.9408   57.7561 C.2     1  ZINC000337709254    0.5300
     16 O16       -11.0771   -4.9353   58.0177 O.2     1  ZINC000337709254   -0.5100
     17 C17       -12.8883   -4.0268   56.8079 C.3     1  ZINC000337709254    0.0200
     18 C18       -13.9347   -3.0809   57.2287 C.1     1  ZINC000337709254    0.2000
     19 N19       -14.7423   -2.3509   57.5535 N.1     1  ZINC000337709254   -0.3900
     20 C20       -12.4235   -3.6819   55.3897 C.3     1  ZINC000337709254   -0.1500
     21 C21       -13.5978   -3.8482   54.4216 C.3     1  ZINC000337709254    0.0600
     22 O22       -14.0939   -5.1859   54.5019 O.3     1  ZINC000337709254   -0.3700
     23 C23       -14.5862   -5.5491   55.7934 C.3     1  ZINC000337709254    0.0600
     24 C24       -13.4516   -5.4512   56.8166 C.3     1  ZINC000337709254   -0.1300
     25 H25        -8.7792    3.6672   57.6649 H       1  ZINC000337709254    0.1300
     26 H26        -7.2753    2.7718   57.3406 H       1  ZINC000337709254    0.1300
     27 H27        -8.0814    3.6630   56.0274 H       1  ZINC000337709254    0.1300
     28 H28        -8.9783    1.1636   58.7681 H       1  ZINC000337709254    0.4200
     29 H29       -11.1817   -0.2629   58.0309 H       1  ZINC000337709254    0.0600
     30 H30        -9.8668   -1.0731   57.1463 H       1  ZINC000337709254    0.0900
     31 H31        -9.8483    0.2295   60.9161 H       1  ZINC000337709254    0.0800
     32 H32       -11.4405   -0.3008   60.2802 H       1  ZINC000337709254    0.0700
     33 H33        -9.4696   -1.8709   62.0313 H       1  ZINC000337709254    0.0700
     34 H34       -11.2313   -1.6482   62.2691 H       1  ZINC000337709254    0.0700
     35 H35       -10.1400   -3.8780   61.0389 H       1  ZINC000337709254    0.0800
     36 H36       -11.7759   -3.2609   60.6730 H       1  ZINC000337709254    0.0700
     37 H37       -11.9037   -1.9633   58.1032 H       1  ZINC000337709254    0.4000
     38 H38       -12.0721   -2.6505   55.3623 H       1  ZINC000337709254    0.0900
     39 H39       -11.6141   -4.3514   55.0988 H       1  ZINC000337709254    0.1100
     40 H40       -14.3909   -3.1498   54.6888 H       1  ZINC000337709254    0.0500
     41 H41       -13.2621   -3.6455   53.4046 H       1  ZINC000337709254    0.1100
     42 H42       -15.3922   -4.8729   56.0785 H       1  ZINC000337709254    0.0500
     43 H43       -14.9625   -6.5717   55.7646 H       1  ZINC000337709254    0.1100
     44 H44       -12.6629   -6.1564   56.5545 H       1  ZINC000337709254    0.1100
     45 H45       -13.8355   -5.6850   57.8096 H       1  ZINC000337709254    0.0900
@<TRIPOS>BOND
     1     1     2    1
     2     1    25    1
     3     1    26    1
     4     1    27    1
     5     2     3    2
     6     2     4    2
     7     2     5   am
     8     5     6    1
     9     5    28    1
    10     6     7    1
    11     6    29    1
    12     6    30    1
    13     7     8    1
    14     7    12    1
    15     7     9    1
    16     9    10    1
    17     9    31    1
    18     9    32    1
    19    10    11    1
    20    10    33    1
    21    10    34    1
    22    11    12    1
    23    11    35    1
    24    11    36    1
    25    12    13    1
    26    12    14    1
    27    14    15   am
    28    14    37    1
    29    15    16    2
    30    15    17    1
    31    17    24    1
    32    17    18    1
    33    17    20    1
    34    18    19    3
    35    20    21    1
    36    20    38    1
    37    20    39    1
    38    21    22    1
    39    21    40    1
    40    21    41    1
    41    22    23    1
    42    23    24    1
    43    23    42    1
    44    23    43    1
    45    24    44    1
    46    24    45    1
@<TRIPOS>SUBSTRUCTURE
     1 ZINC000337709254        1 TEMP              0 ****  ****    0 ROOT


##########                                Name:    ZINC000328606936
##########                DOCK_Rotatable_Bonds:                   6
##########                         Heavy_Atoms:                  23
##########                    Molecular_Weight:             338.428
##########                DOCK_Rotatable_Bonds:                   6
##########                       Formal_Charge:           0.0100001
##########                     HBond_Acceptors:                   7
##########                        HBond_Donors:                   2
##########                         Heavy_Atoms:                  23
##########                          Grid_Score:          -31.276573
##########                     Grid_vdw_energy:          -27.854156
##########                      Grid_es_energy:           -3.422417
##########           Internal_energy_repulsive:           10.553913

@<TRIPOS>MOLECULE
ZINC000328606936
 45 47 1 0 0
SMALL
USER_CHARGES


@<TRIPOS>ATOM
      1 C1         -9.3214   -0.1773   63.1061 C.3     1  <0>        -0.0500
      2 N2        -10.1507    0.4391   62.0619 N.4     1  <0>        -0.3500
      3 H3         -9.5576    0.9144   61.3982 H       1  <0>         0.4200
      4 C4        -11.0719    1.4051   62.6750 C.3     1  <0>        -0.0900
      5 C5        -11.8444    0.7313   63.7797 C.2     1  <0>         0.4900
      6 O6        -12.9264    0.2214   63.5436 O.co2   1  <0>        -0.6700
      7 O7        -11.3873    0.6959   64.9094 O.co2   1  <0>        -0.6400
      8 C8        -10.9222   -0.6026   61.3708 C.3     1  <0>         0.0100
      9 H9        -11.6076   -1.0888   62.0650 H       1  <0>         0.1600
     10 C10        -9.9728   -1.6423   60.7373 C.3     1  <0>         0.1000
     11 N11       -10.6182   -2.0048   59.4540 N.am    1  <0>        -0.6200
     12 C12       -10.7024   -3.2243   58.8865 C.2     1  <0>         0.6200
     13 O13       -10.2101   -4.1892   59.4414 O.2     1  <0>        -0.5100
     14 C14       -11.3869   -3.3886   57.6007 C.2     1  <0>        -0.2800
     15 C15       -11.1059   -2.6970   56.4625 C.2     1  <0>        -0.0300
     16 C16       -11.8985   -3.0406   55.3828 C.2     1  <0>        -0.1200
     17 C17       -12.8093   -4.0024   55.6551 C.2     1  <0>        -0.1900
     18 C18       -13.7963   -4.5567   54.6450 C.3     1  <0>        -0.0500
     19 C19       -13.8746   -3.5965   53.4553 C.3     1  <0>        -0.1200
     20 C20       -12.4550   -3.2807   52.9755 C.3     1  <0>        -0.1200
     21 C21       -11.7594   -2.3943   54.0103 C.3     1  <0>        -0.0600
     22 S22       -12.6956   -4.5147   57.2800 S.3     1  <0>         0.2000
     23 C23       -11.1500   -0.7228   58.9362 C.3     1  <0>         0.0600
     24 C24       -11.7006    0.0042   60.1850 C.3     1  <0>         0.0800
     25 H25       -11.5097    1.0751   60.1149 H       1  <0>         0.1000
     26 O26       -13.1013   -0.2417   60.3258 O.3     1  <0>        -0.5400
     27 H27        -9.9620   -0.6907   63.8230 H       1  <0>         0.1100
     28 H28        -8.6378   -0.8941   62.6511 H       1  <0>         0.1100
     29 H29        -8.7490    0.5957   63.6188 H       1  <0>         0.1600
     30 H30       -10.5033    2.2393   63.0859 H       1  <0>         0.1200
     31 H31       -11.7657    1.7752   61.9201 H       1  <0>         0.1300
     32 H32        -8.9919   -1.2020   60.5584 H       1  <0>         0.1000
     33 H33        -9.8856   -2.5185   61.3797 H       1  <0>         0.1200
     34 H34       -10.3321   -1.9455   56.4077 H       1  <0>         0.1500
     35 H35       -13.4591   -5.5353   54.3034 H       1  <0>         0.0900
     36 H36       -14.7796   -4.6474   55.1068 H       1  <0>         0.0800
     37 H37       -14.4376   -4.0628   52.6468 H       1  <0>         0.0700
     38 H38       -14.3694   -2.6751   53.7622 H       1  <0>         0.0700
     39 H39       -11.8961   -4.2089   52.8559 H       1  <0>         0.0700
     40 H40       -12.5015   -2.7573   52.0205 H       1  <0>         0.0700
     41 H41       -12.2262   -1.4094   54.0205 H       1  <0>         0.0800
     42 H42       -10.7035   -2.2978   53.7581 H       1  <0>         0.0800
     43 H43       -10.3530   -0.1388   58.4760 H       1  <0>         0.1000
     44 H44       -11.9510   -0.9052   58.2197 H       1  <0>         0.1000
     45 H45       -13.3306   -1.1782   60.4000 H       1  <0>         0.4000
@<TRIPOS>BOND
     1     1     2    1
     2     1    27    1
     3     1    28    1
     4     1    29    1
     5     2     3    1
     6     2     4    1
     7     2     8    1
     8     4     5    1
     9     4    30    1
    10     4    31    1
    11     5     6   ar
    12     5     7   ar
    13     8     9    1
    14     8    24    1
    15     8    10    1
    16    10    11    1
    17    10    32    1
    18    10    33    1
    19    11    12   am
    20    11    23    1
    21    12    13    2
    22    12    14    1
    23    14    22    1
    24    14    15    2
    25    15    16    1
    26    15    34    1
    27    16    21    1
    28    16    17    2
    29    17    18    1
    30    17    22    1
    31    18    19    1
    32    18    35    1
    33    18    36    1
    34    19    20    1
    35    19    37    1
    36    19    38    1
    37    20    21    1
    38    20    39    1
    39    20    40    1
    40    21    41    1
    41    21    42    1
    42    23    24    1
    43    23    43    1
    44    23    44    1
    45    24    25    1
    46    24    26    1
    47    26    45    1
@<TRIPOS>SUBSTRUCTURE
     1 <0>         1 TEMP              0 ****  ****    0 ROOT


##########                                Name:    ZINC001064463188
##########                DOCK_Rotatable_Bonds:                   6
##########                         Heavy_Atoms:                  25
##########                    Molecular_Weight:             342.441
##########                DOCK_Rotatable_Bonds:                   6
##########                       Formal_Charge:          -0.0100004
##########                     HBond_Acceptors:                   6
##########                        HBond_Donors:                   0
##########                         Heavy_Atoms:                  25
##########                          Grid_Score:          -31.274569
##########                     Grid_vdw_energy:          -30.345160
##########                      Grid_es_energy:           -0.929409
##########           Internal_energy_repulsive:           17.861694

@<TRIPOS>MOLECULE
ZINC001064463188
 51 54 1 0 0
SMALL
USER_CHARGES


@<TRIPOS>ATOM
      1 C1        -11.9510   -3.6316   53.1772 C.3     1  ZINC001064463188    0.0400
      2 O2        -13.1386   -4.2503   53.6760 O.3     1  ZINC001064463188   -0.3000
      3 C3        -13.2098   -4.4562   55.0136 C.ar    1  ZINC001064463188    0.3900
      4 C4        -13.9117   -5.5469   55.5244 C.ar    1  ZINC001064463188   -0.2800
      5 C5        -13.9581   -5.7181   56.8953 C.ar    1  ZINC001064463188    0.2000
      6 N6        -13.3391   -4.8474   57.6779 N.ar    1  ZINC001064463188   -0.5800
      7 C7        -12.6795   -3.8198   57.1638 C.ar    1  ZINC001064463188    0.5300
      8 N8        -12.0447   -2.9315   58.0143 N.3     1  ZINC001064463188   -0.4500
      9 C9        -12.8707   -2.6468   59.1854 C.3     1  ZINC001064463188    0.0700
     10 C10       -12.8521   -1.1446   59.4924 C.3     1  ZINC001064463188   -0.1200
     11 C11       -11.4840   -0.6738   59.9478 C.3     1  ZINC001064463188    0.1400
     12 H12       -11.4943    0.4054   60.1000 H       1  ZINC001064463188    0.0900
     13 C13       -11.0445   -1.3775   61.2334 C.3     1  ZINC001064463188   -0.1300
     14 C14       -10.3067   -2.6359   60.7433 C.3     1  ZINC001064463188   -0.1300
     15 C15        -9.9990   -2.3717   59.2653 C.3     1  ZINC001064463188    0.1200
     16 H16        -8.9223   -2.4148   59.1007 H       1  ZINC001064463188    0.0900
     17 C17       -10.6916   -3.4236   58.3852 C.3     1  ZINC001064463188    0.0600
     18 N18       -10.5049   -1.0275   58.8783 N.am    1  ZINC001064463188   -0.6000
     19 C19       -10.1527   -0.3003   57.7996 C.2     1  ZINC001064463188    0.5800
     20 O20        -9.3314   -0.7351   57.0150 O.2     1  ZINC001064463188   -0.5400
     21 C21       -10.7615    1.0191   57.5712 C.2     1  ZINC001064463188   -0.2200
     22 C22        -9.9884    2.0869   57.3958 C.2     1  ZINC001064463188    0.0000
     23 C23        -8.4885    1.9450   57.4310 C.3     1  ZINC001064463188   -0.1300
     24 C24       -10.6121    3.4386   57.1618 C.3     1  ZINC001064463188   -0.1200
     25 C25        -9.9428    4.6484   57.8171 C.3     1  ZINC001064463188   -0.1900
     26 C26        -9.8318    4.4381   56.3056 C.3     1  ZINC001064463188   -0.1600
     27 N27       -12.6074   -3.6251   55.8555 N.ar    1  ZINC001064463188   -0.5900
     28 H28       -11.0878   -4.2496   53.4248 H       1  ZINC001064463188    0.0600
     29 H29       -12.0236   -3.5258   52.0948 H       1  ZINC001064463188    0.1000
     30 H30       -11.8356   -2.6476   53.6316 H       1  ZINC001064463188    0.0600
     31 H31       -14.4083   -6.2423   54.8640 H       1  ZINC001064463188    0.1500
     32 H32       -14.4938   -6.5525   57.3234 H       1  ZINC001064463188    0.1800
     33 H33       -13.8953   -2.9630   58.9902 H       1  ZINC001064463188    0.0800
     34 H34       -12.4825   -3.1957   60.0433 H       1  ZINC001064463188    0.0600
     35 H35       -13.1348   -0.5958   58.5941 H       1  ZINC001064463188    0.0800
     36 H36       -13.5786   -0.9344   60.2774 H       1  ZINC001064463188    0.0800
     37 H37       -10.3714   -0.7396   61.8062 H       1  ZINC001064463188    0.0800
     38 H38       -11.9121   -1.6533   61.8327 H       1  ZINC001064463188    0.0900
     39 H39        -9.3817   -2.7740   61.3033 H       1  ZINC001064463188    0.0800
     40 H40       -10.9459   -3.5128   60.8455 H       1  ZINC001064463188    0.0800
     41 H41       -10.7984   -4.3537   58.9432 H       1  ZINC001064463188    0.0700
     42 H42       -10.0961   -3.5994   57.4893 H       1  ZINC001064463188    0.0900
     43 H43       -11.8365    1.1207   57.5459 H       1  ZINC001064463188    0.1200
     44 H44        -8.1193    1.7390   56.4263 H       1  ZINC001064463188    0.0800
     45 H45        -8.0446    2.8702   57.7985 H       1  ZINC001064463188    0.0800
     46 H46        -8.2167    1.1233   58.0936 H       1  ZINC001064463188    0.0700
     47 H47       -11.6991    3.4471   57.0805 H       1  ZINC001064463188    0.1400
     48 H48       -10.5895    5.4530   58.1671 H       1  ZINC001064463188    0.1000
     49 H49        -9.0514    4.4667   58.4173 H       1  ZINC001064463188    0.1000
     50 H50        -8.8673    4.1180   55.9117 H       1  ZINC001064463188    0.0900
     51 H51       -10.4054    5.1044   55.6614 H       1  ZINC001064463188    0.1000
@<TRIPOS>BOND
     1     1     2    1
     2     1    28    1
     3     1    29    1
     4     1    30    1
     5     2     3    1
     6     3    27   ar
     7     3     4   ar
     8     4     5   ar
     9     4    31    1
    10     5     6   ar
    11     5    32    1
    12     6     7   ar
    13     7     8    1
    14     7    27   ar
    15     8    17    1
    16     8     9    1
    17     9    10    1
    18     9    33    1
    19     9    34    1
    20    10    11    1
    21    10    35    1
    22    10    36    1
    23    11    12    1
    24    11    18    1
    25    11    13    1
    26    13    14    1
    27    13    37    1
    28    13    38    1
    29    14    15    1
    30    14    39    1
    31    14    40    1
    32    15    16    1
    33    15    17    1
    34    15    18    1
    35    17    41    1
    36    17    42    1
    37    18    19   am
    38    19    20    2
    39    19    21    1
    40    21    22    2
    41    21    43    1
    42    22    23    1
    43    22    24    1
    44    23    44    1
    45    23    45    1
    46    23    46    1
    47    24    26    1
    48    24    25    1
    49    24    47    1
    50    25    26    1
    51    25    48    1
    52    25    49    1
    53    26    50    1
    54    26    51    1
@<TRIPOS>SUBSTRUCTURE
     1 ZINC001064463188        1 TEMP              0 ****  ****    0 ROOT


##########                                Name:    ZINC000271662144
##########                DOCK_Rotatable_Bonds:                   8
##########                         Heavy_Atoms:                  26
##########                    Molecular_Weight:             390.402
##########                DOCK_Rotatable_Bonds:                   8
##########                       Formal_Charge:          0.00999944
##########                     HBond_Acceptors:                   9
##########                        HBond_Donors:                   3
##########                         Heavy_Atoms:                  26
##########                          Grid_Score:          -31.255058
##########                     Grid_vdw_energy:          -29.511961
##########                      Grid_es_energy:           -1.743096
##########           Internal_energy_repulsive:           11.199792

@<TRIPOS>MOLECULE
ZINC000271662144
 44 45 1 0 0
SMALL
USER_CHARGES


@<TRIPOS>ATOM
      1 C1        -14.8579   -0.2558   56.6129 C.3     1  ZINC000271662144   -0.1400
      2 C2        -13.9578   -1.4848   56.4702 C.3     1  ZINC000271662144    0.1200
      3 H3        -13.1439   -1.2609   55.7807 H       1  ZINC000271662144    0.0600
      4 N4        -14.7450   -2.6105   55.9494 N.3     1  ZINC000271662144   -0.6700
      5 C5        -13.9060   -3.5155   55.1525 C.3     1  ZINC000271662144    0.1300
      6 H6        -12.8935   -3.5221   55.5563 H       1  ZINC000271662144    0.1100
      7 C7        -14.4863   -4.9300   55.2077 C.3     1  ZINC000271662144   -0.2000
      8 C8        -14.2965   -5.5046   56.6130 C.3     1  ZINC000271662144    0.4600
      9 F9        -12.9704   -5.3181   57.0178 F       1  ZINC000271662144   -0.1800
     10 F10       -15.1528   -4.8494   57.5043 F       1  ZINC000271662144   -0.1800
     11 F11       -14.5926   -6.8719   56.6015 F       1  ZINC000271662144   -0.1700
     12 C12       -13.8734   -3.0413   53.7225 C.ar    1  ZINC000271662144   -0.0900
     13 C13       -12.6657   -2.9301   53.0590 C.ar    1  ZINC000271662144   -0.0600
     14 C14       -12.6345   -2.4954   51.7476 C.ar    1  ZINC000271662144   -0.1600
     15 C15       -13.8137   -2.1716   51.0980 C.ar    1  ZINC000271662144    0.1000
     16 F16       -13.7844   -1.7468   49.8158 F       1  ZINC000271662144   -0.1400
     17 C17       -15.0227   -2.2838   51.7633 C.ar    1  ZINC000271662144   -0.1500
     18 C18       -15.0517   -2.7233   53.0732 C.ar    1  ZINC000271662144   -0.0700
     19 C19       -13.3892   -1.8501   57.8172 C.ar    1  ZINC000271662144   -0.1100
     20 C20       -14.2338   -2.0485   58.8930 C.ar    1  ZINC000271662144   -0.0400
     21 C21       -13.7121   -2.3837   60.1287 C.ar    1  ZINC000271662144   -0.1400
     22 C22       -12.3460   -2.5207   60.2881 C.ar    1  ZINC000271662144   -0.0200
     23 C23       -11.5012   -2.3230   59.2117 C.ar    1  ZINC000271662144   -0.6800
     24 S24        -9.7596   -2.4971   59.4149 S.o2    1  ZINC000271662144    2.7000
     25 N25        -9.4182   -2.1853   61.0051 N.am    1  ZINC000271662144   -1.2500
     26 O26        -9.4664   -3.8713   59.2036 O.2     1  ZINC000271662144   -0.9600
     27 O27        -9.1613   -1.4502   58.6632 O.2     1  ZINC000271662144   -0.9600
     28 C28       -12.0230   -1.9922   57.9753 C.ar    1  ZINC000271662144   -0.0100
     29 H29       -15.2692    0.0084   55.6386 H       1  ZINC000271662144    0.0600
     30 H30       -15.6720   -0.4797   57.3023 H       1  ZINC000271662144    0.0700
     31 H31       -14.2738    0.5795   56.9993 H       1  ZINC000271662144    0.0600
     32 H32       -15.2036   -3.1079   56.6980 H       1  ZINC000271662144    0.3500
     33 H33       -15.5495   -4.8962   54.9696 H       1  ZINC000271662144    0.1100
     34 H34       -13.9719   -5.5623   54.4841 H       1  ZINC000271662144    0.1200
     35 H35       -11.7460   -3.1827   53.5659 H       1  ZINC000271662144    0.1300
     36 H36       -11.6909   -2.4078   51.2297 H       1  ZINC000271662144    0.1400
     37 H37       -15.9430   -2.0312   51.2578 H       1  ZINC000271662144    0.1400
     38 H38       -15.9948   -2.8113   53.5922 H       1  ZINC000271662144    0.1300
     39 H39       -15.3012   -1.9415   58.7685 H       1  ZINC000271662144    0.1400
     40 H40       -14.3720   -2.5381   60.9697 H       1  ZINC000271662144    0.1400
     41 H41       -11.9384   -2.7818   61.2536 H       1  ZINC000271662144    0.1400
     42 H42        -8.5026   -2.2298   61.3222 H       1  ZINC000271662144    0.4200
     43 H43       -10.1336   -1.9580   61.6192 H       1  ZINC000271662144    0.4200
     44 H44       -11.3632   -1.8378   57.1344 H       1  ZINC000271662144    0.1400
@<TRIPOS>BOND
     1     1     2    1
     2     1    29    1
     3     1    30    1
     4     1    31    1
     5     2     3    1
     6     2     4    1
     7     2    19    1
     8     4     5    1
     9     4    32    1
    10     5     6    1
    11     5     7    1
    12     5    12    1
    13     7     8    1
    14     7    33    1
    15     7    34    1
    16     8     9    1
    17     8    10    1
    18     8    11    1
    19    12    18   ar
    20    12    13   ar
    21    13    14   ar
    22    13    35    1
    23    14    15   ar
    24    14    36    1
    25    15    16    1
    26    15    17   ar
    27    17    18   ar
    28    17    37    1
    29    18    38    1
    30    19    28   ar
    31    19    20   ar
    32    20    21   ar
    33    20    39    1
    34    21    22   ar
    35    21    40    1
    36    22    23   ar
    37    22    41    1
    38    23    24    1
    39    23    28   ar
    40    24    25   am
    41    24    26    2
    42    24    27    2
    43    25    42    1
    44    25    43    1
    45    28    44    1
@<TRIPOS>SUBSTRUCTURE
     1 ZINC000271662144        1 TEMP              0 ****  ****    0 ROOT


##########                                Name:    ZINC001002468398
##########                DOCK_Rotatable_Bonds:                   7
##########                         Heavy_Atoms:                  24
##########                    Molecular_Weight:             341.358
##########                DOCK_Rotatable_Bonds:                   7
##########                       Formal_Charge:           0.0100001
##########                     HBond_Acceptors:                   8
##########                        HBond_Donors:                   0
##########                         Heavy_Atoms:                  24
##########                          Grid_Score:          -31.248398
##########                     Grid_vdw_energy:          -31.198936
##########                      Grid_es_energy:           -0.049461
##########           Internal_energy_repulsive:           14.839162

@<TRIPOS>MOLECULE
ZINC001002468398
 45 47 1 0 0
SMALL
USER_CHARGES


@<TRIPOS>ATOM
      1 C1         -9.4156    0.6957   57.5484 C.3     1  ZINC001002468398   -0.1400
      2 C2        -10.7625    0.4812   58.2419 C.3     1  ZINC001002468398   -0.0500
      3 C3        -10.5468   -0.2461   59.5441 C.2     1  ZINC001002468398    0.0500
      4 C4        -10.4945   -1.5947   59.7195 C.2     1  ZINC001002468398   -0.0800
      5 C5        -10.6382   -2.6206   58.6707 C.2     1  ZINC001002468398    0.6000
      6 O6         -9.6812   -2.9285   57.9862 O.2     1  ZINC001002468398   -0.5300
      7 N7        -11.8299   -3.2173   58.4702 N.am    1  ZINC001002468398   -0.6000
      8 C8        -12.9826   -2.8462   59.2947 C.3     1  ZINC001002468398    0.0900
      9 C9        -11.9726   -4.2367   57.4279 C.3     1  ZINC001002468398    0.1000
     10 C10       -13.1813   -3.9038   56.5510 C.3     1  ZINC001002468398    0.1300
     11 H11       -13.5965   -2.9391   56.8429 H       1  ZINC001002468398    0.0800
     12 C12       -14.2545   -5.0030   56.6971 C.3     1  ZINC001002468398   -0.1300
     13 C13       -14.8067   -5.1437   55.2540 C.3     1  ZINC001002468398   -0.1300
     14 C14       -13.5300   -4.9102   54.4084 C.3     1  ZINC001002468398    0.1000
     15 N15       -12.7787   -3.8676   55.1374 N.am    1  ZINC001002468398   -0.6100
     16 C16       -11.8751   -3.0269   54.5959 C.2     1  ZINC001002468398    0.5600
     17 O17       -11.3163   -2.2065   55.2927 O.2     1  ZINC001002468398   -0.5100
     18 C18       -11.5589   -3.1065   53.1245 C.3     1  ZINC001002468398   -0.2000
     19 H19       -11.5780   -4.1073   52.6931 H       1  ZINC001002468398    0.1500
     20 C20       -10.5341   -2.1164   52.5676 C.3     1  ZINC001002468398   -0.1500
     21 C21       -12.0195   -1.9468   52.2392 C.3     1  ZINC001002468398    0.2300
     22 F22       -12.4324   -2.2518   50.9378 F       1  ZINC001002468398   -0.1500
     23 F23       -12.7015   -0.8933   52.8576 F       1  ZINC001002468398   -0.1400
     24 N24       -10.2841   -1.8178   61.0452 N.2     1  ZINC001002468398   -0.4600
     25 C25       -10.2114   -0.6700   61.6496 C.2     1  ZINC001002468398    0.1700
     26 O26       -10.3640    0.3130   60.7509 O.3     1  ZINC001002468398   -0.2000
     27 H27        -8.7658    1.2883   58.1923 H       1  ZINC001002468398    0.0600
     28 H28        -8.9501   -0.2702   57.3524 H       1  ZINC001002468398    0.0600
     29 H29        -9.5717    1.2218   56.6066 H       1  ZINC001002468398    0.0700
     30 H30       -11.2281    1.4470   58.4380 H       1  ZINC001002468398    0.1200
     31 H31       -11.4124   -0.1115   57.5981 H       1  ZINC001002468398    0.0900
     32 H32       -13.2304   -1.7988   59.1225 H       1  ZINC001002468398    0.0700
     33 H33       -13.8359   -3.4700   59.0280 H       1  ZINC001002468398    0.0700
     34 H34       -12.7395   -2.9939   60.3469 H       1  ZINC001002468398    0.0700
     35 H35       -11.0724   -4.2567   56.8135 H       1  ZINC001002468398    0.0900
     36 H36       -12.1178   -5.2125   57.8915 H       1  ZINC001002468398    0.0900
     37 H37       -13.8056   -5.9384   57.0312 H       1  ZINC001002468398    0.1000
     38 H38       -15.0411   -4.6854   57.3817 H       1  ZINC001002468398    0.0800
     39 H39       -15.2096   -6.1423   55.0855 H       1  ZINC001002468398    0.0900
     40 H40       -15.5574   -4.3811   55.0468 H       1  ZINC001002468398    0.0800
     41 H41       -12.9441   -5.8271   54.3447 H       1  ZINC001002468398    0.0800
     42 H42       -13.7945   -4.5580   53.4113 H       1  ZINC001002468398    0.0800
     43 H43       -10.0884   -1.4075   53.2654 H       1  ZINC001002468398    0.1300
     44 H44        -9.8790   -2.4657   51.7694 H       1  ZINC001002468398    0.1400
     45 H45       -10.0493   -0.5298   62.7081 H       1  ZINC001002468398    0.2600
@<TRIPOS>BOND
     1     1     2    1
     2     1    27    1
     3     1    28    1
     4     1    29    1
     5     2     3    1
     6     2    30    1
     7     2    31    1
     8     3    26    1
     9     3     4    2
    10     4     5    1
    11     4    24    1
    12     5     6    2
    13     5     7   am
    14     7     8    1
    15     7     9    1
    16     8    32    1
    17     8    33    1
    18     8    34    1
    19     9    10    1
    20     9    35    1
    21     9    36    1
    22    10    11    1
    23    10    15    1
    24    10    12    1
    25    12    13    1
    26    12    37    1
    27    12    38    1
    28    13    14    1
    29    13    39    1
    30    13    40    1
    31    14    15    1
    32    14    41    1
    33    14    42    1
    34    15    16   am
    35    16    17    2
    36    16    18    1
    37    18    19    1
    38    18    21    1
    39    18    20    1
    40    20    21    1
    41    20    43    1
    42    20    44    1
    43    21    22    1
    44    21    23    1
    45    24    25    2
    46    25    26    1
    47    25    45    1
@<TRIPOS>SUBSTRUCTURE
     1 ZINC001002468398        1 TEMP              0 ****  ****    0 ROOT


##########                                Name:    ZINC000281092425
##########                DOCK_Rotatable_Bonds:                   8
##########                         Heavy_Atoms:                  23
##########                    Molecular_Weight:             332.304
##########                DOCK_Rotatable_Bonds:                   8
##########                       Formal_Charge:         2.98023e-08
##########                     HBond_Acceptors:                   9
##########                        HBond_Donors:                   2
##########                         Heavy_Atoms:                  23
##########                          Grid_Score:          -31.234585
##########                     Grid_vdw_energy:          -31.437319
##########                      Grid_es_energy:            0.202734
##########           Internal_energy_repulsive:           21.889605

@<TRIPOS>MOLECULE
ZINC000281092425
 41 42 1 0 0
SMALL
USER_CHARGES


@<TRIPOS>ATOM
      1 O1         -8.7373   -2.1071   62.3258 O.2     1  ZINC000281092425   -0.1800
      2 N2         -9.7570   -1.6705   61.8227 N.pl3   1  ZINC000281092425    0.0400
      3 O3        -10.3014   -0.6916   62.3011 O.2     1  ZINC000281092425   -0.1500
      4 C4        -10.3313   -2.3260   60.6264 C.ar    1  ZINC000281092425   -0.1200
      5 C5         -9.7131   -3.4365   60.0845 C.ar    1  ZINC000281092425    0.0200
      6 C6        -10.2460   -4.0512   58.9678 C.ar    1  ZINC000281092425   -0.2200
      7 C7        -11.4060   -3.5537   58.3873 C.ar    1  ZINC000281092425    0.3000
      8 N8        -11.9452   -4.1751   57.2587 N.pl3   1  ZINC000281092425   -0.7200
      9 C9        -12.0751   -3.4299   56.0040 C.3     1  ZINC000281092425    0.1200
     10 C10       -13.0502   -4.1582   55.0768 C.3     1  ZINC000281092425   -0.0900
     11 H11       -12.9397   -5.2347   55.2067 H       1  ZINC000281092425    0.0900
     12 C12       -14.4835   -3.7474   55.4199 C.3     1  ZINC000281092425    0.0800
     13 O13       -15.0470   -4.6971   56.3268 O.3     1  ZINC000281092425   -0.5700
     14 C14       -12.7469   -3.7861   53.6241 C.3     1  ZINC000281092425   -0.1100
     15 H15       -13.5280   -4.1558   52.9596 H       1  ZINC000281092425    0.0900
     16 C16       -12.5727   -2.2505   53.4716 C.3     1  ZINC000281092425   -0.1600
     17 C17       -11.6195   -2.1823   52.2518 C.3     1  ZINC000281092425    0.0500
     18 O18       -10.7343   -3.3031   52.4044 O.3     1  ZINC000281092425   -0.3900
     19 C19       -11.3634   -4.3217   53.1971 C.3     1  ZINC000281092425    0.0700
     20 C20       -12.0286   -2.4382   58.9308 C.ar    1  ZINC000281092425   -0.2800
     21 C21       -11.4935   -1.8276   60.0538 C.ar    1  ZINC000281092425    0.2300
     22 O22       -12.1009   -0.7358   60.5885 O.3     1  ZINC000281092425   -0.2900
     23 C23       -12.1780    0.4311   59.7673 C.3     1  ZINC000281092425    0.4100
     24 F24       -11.1562    0.3976   58.8122 F       1  ZINC000281092425   -0.1900
     25 F25       -13.4187    0.4658   59.1217 F       1  ZINC000281092425   -0.1900
     26 H26        -8.8112   -3.8246   60.5346 H       1  ZINC000281092425    0.1600
     27 H27        -9.7605   -4.9186   58.5458 H       1  ZINC000281092425    0.1500
     28 H28       -12.2337   -5.0999   57.3054 H       1  ZINC000281092425    0.4100
     29 H29       -12.4519   -2.4287   56.2134 H       1  ZINC000281092425    0.0800
     30 H30       -11.1003   -3.3577   55.5218 H       1  ZINC000281092425    0.0800
     31 H31       -14.4776   -2.7611   55.8839 H       1  ZINC000281092425    0.0500
     32 H32       -15.0807   -3.7166   54.5086 H       1  ZINC000281092425    0.0500
     33 H33       -15.9604   -4.5053   56.5798 H       1  ZINC000281092425    0.3800
     34 H34       -13.5249   -1.7667   53.2536 H       1  ZINC000281092425    0.0800
     35 H35       -12.1081   -1.8178   54.3577 H       1  ZINC000281092425    0.0800
     36 H36       -12.1853   -2.2706   51.3243 H       1  ZINC000281092425    0.0600
     37 H37       -11.0552   -1.2499   52.2643 H       1  ZINC000281092425    0.0900
     38 H38       -10.7603   -4.5273   54.0815 H       1  ZINC000281092425    0.0800
     39 H39       -11.4784   -5.2310   52.6072 H       1  ZINC000281092425    0.0700
     40 H40       -12.9306   -2.0494   58.4815 H       1  ZINC000281092425    0.1500
     41 H41       -12.0663    1.3202   60.3879 H       1  ZINC000281092425    0.1900
@<TRIPOS>BOND
     1     1     2    2
     2     2     3    2
     3     2     4    1
     4     4    21   ar
     5     4     5   ar
     6     5     6   ar
     7     5    26    1
     8     6     7   ar
     9     6    27    1
    10     7     8    1
    11     7    20   ar
    12     8     9    1
    13     8    28    1
    14     9    10    1
    15     9    29    1
    16     9    30    1
    17    10    11    1
    18    10    12    1
    19    10    14    1
    20    12    13    1
    21    12    31    1
    22    12    32    1
    23    13    33    1
    24    14    15    1
    25    14    19    1
    26    14    16    1
    27    16    17    1
    28    16    34    1
    29    16    35    1
    30    17    18    1
    31    17    36    1
    32    17    37    1
    33    18    19    1
    34    19    38    1
    35    19    39    1
    36    20    21   ar
    37    20    40    1
    38    21    22    1
    39    22    23    1
    40    23    24    1
    41    23    25    1
    42    23    41    1
@<TRIPOS>SUBSTRUCTURE
     1 ZINC000281092425        1 TEMP              0 ****  ****    0 ROOT


##########                                Name:    ZINC000543429378
##########                DOCK_Rotatable_Bonds:                   6
##########                         Heavy_Atoms:                  29
##########                    Molecular_Weight:             406.408
##########                DOCK_Rotatable_Bonds:                   6
##########                       Formal_Charge:           0.0100003
##########                     HBond_Acceptors:                   9
##########                        HBond_Donors:                   1
##########                         Heavy_Atoms:                  29
##########                          Grid_Score:          -31.212919
##########                     Grid_vdw_energy:          -31.291187
##########                      Grid_es_energy:            0.078267
##########           Internal_energy_repulsive:           45.590012

@<TRIPOS>MOLECULE
ZINC000543429378
 50 53 1 0 0
SMALL
USER_CHARGES


@<TRIPOS>ATOM
      1 O1        -12.4380   -5.0923   57.8330 O.2     1  ZINC000543429378   -0.5100
      2 C2        -12.2808   -4.4102   56.8426 C.2     1  ZINC000543429378    0.5200
      3 N3        -11.4252   -3.3691   56.8700 N.am    1  ZINC000543429378   -0.6600
      4 C4        -10.7226   -3.0718   58.0430 C.ar    1  ZINC000543429378    0.1900
      5 C5         -9.9193   -4.0373   58.6359 C.ar    1  ZINC000543429378   -0.1600
      6 C6         -9.2251   -3.7435   59.7939 C.ar    1  ZINC000543429378   -0.0600
      7 C7         -9.3283   -2.4896   60.3650 C.ar    1  ZINC000543429378   -0.2100
      8 C8        -10.1296   -1.5208   59.7767 C.ar    1  ZINC000543429378    0.1300
      9 O9        -10.2302   -0.2880   60.3396 O.3     1  ZINC000543429378   -0.3100
     10 C10       -10.9957    0.6884   59.6307 C.3     1  ZINC000543429378    0.6000
     11 F11       -12.3261    0.2644   59.5433 F       1  ZINC000543429378   -0.1600
     12 F12       -10.9392    1.9094   60.3113 F       1  ZINC000543429378   -0.1300
     13 F13       -10.4715    0.8473   58.3435 F       1  ZINC000543429378   -0.1600
     14 C14       -10.8230   -1.8099   58.6121 C.ar    1  ZINC000543429378   -0.1300
     15 C15       -13.0375   -4.7303   55.5793 C.3     1  ZINC000543429378    0.0700
     16 H16       -13.0517   -5.8082   55.4180 H       1  ZINC000543429378    0.1200
     17 C17       -12.3699   -4.0225   54.3684 C.3     1  ZINC000543429378   -0.1200
     18 C18       -13.5912   -3.5995   53.5375 C.3     1  ZINC000543429378   -0.1000
     19 H19       -13.9948   -4.4425   52.9768 H       1  ZINC000543429378    0.0900
     20 C20       -13.3754   -2.3978   52.6334 C.3     1  ZINC000543429378   -0.1100
     21 C21       -14.7310   -2.0588   51.9931 C.3     1  ZINC000543429378   -0.1200
     22 C22       -15.7919   -1.7682   53.0506 C.3     1  ZINC000543429378   -0.1100
     23 C23       -15.9179   -2.9286   54.0517 C.3     1  ZINC000543429378   -0.0900
     24 C24       -14.5591   -3.1615   54.6701 C.3     1  ZINC000543429378    0.0700
     25 H25       -14.1897   -2.2256   55.0892 H       1  ZINC000543429378    0.0900
     26 N26       -14.4280   -4.2144   55.6771 N.3     1  ZINC000543429378   -0.4300
     27 C27       -14.6748   -3.7206   56.9463 C.ar    1  ZINC000543429378    0.5000
     28 N28       -14.2879   -2.4897   57.2478 N.ar    1  ZINC000543429378   -0.5300
     29 C29       -14.5088   -1.9873   58.4513 C.ar    1  ZINC000543429378    0.1800
     30 C30       -15.1529   -2.7649   59.4008 C.ar    1  ZINC000543429378   -0.2500
     31 C31       -15.5441   -4.0479   59.0519 C.ar    1  ZINC000543429378    0.1800
     32 N32       -15.2971   -4.4878   57.8291 N.ar    1  ZINC000543429378   -0.5300
     33 H33       -11.2965   -2.8261   56.0767 H       1  ZINC000543429378    0.4200
     34 H34        -9.8376   -5.0184   58.1919 H       1  ZINC000543429378    0.1400
     35 H35        -8.6011   -4.4955   60.2536 H       1  ZINC000543429378    0.1400
     36 H36        -8.7850   -2.2631   61.2705 H       1  ZINC000543429378    0.1400
     37 H37       -11.4469   -1.0573   58.1529 H       1  ZINC000543429378    0.1500
     38 H38       -11.7984   -3.1526   54.6919 H       1  ZINC000543429378    0.0800
     39 H39       -11.7400   -4.7155   53.8105 H       1  ZINC000543429378    0.0900
     40 H40       -13.0206   -1.5508   53.2207 H       1  ZINC000543429378    0.0700
     41 H41       -12.6498   -2.6426   51.8578 H       1  ZINC000543429378    0.0700
     42 H42       -14.6145   -1.1827   51.3552 H       1  ZINC000543429378    0.0600
     43 H43       -15.0574   -2.9012   51.3832 H       1  ZINC000543429378    0.0600
     44 H44       -15.5193   -0.8605   53.5891 H       1  ZINC000543429378    0.0600
     45 H45       -16.7526   -1.6150   52.5592 H       1  ZINC000543429378    0.0700
     46 H46       -16.6392   -2.6720   54.8276 H       1  ZINC000543429378    0.0700
     47 H47       -16.2363   -3.8329   53.5329 H       1  ZINC000543429378    0.0700
     48 H48       -14.1908   -0.9835   58.6912 H       1  ZINC000543429378    0.1600
     49 H49       -15.3455   -2.3794   60.3912 H       1  ZINC000543429378    0.1400
     50 H50       -16.0478   -4.6797   59.7687 H       1  ZINC000543429378    0.1600
@<TRIPOS>BOND
     1     1     2    2
     2     2     3   am
     3     2    15    1
     4     3     4    1
     5     3    33    1
     6     4    14   ar
     7     4     5   ar
     8     5     6   ar
     9     5    34    1
    10     6     7   ar
    11     6    35    1
    12     7     8   ar
    13     7    36    1
    14     8     9    1
    15     8    14   ar
    16     9    10    1
    17    10    11    1
    18    10    12    1
    19    10    13    1
    20    14    37    1
    21    15    16    1
    22    15    26    1
    23    15    17    1
    24    17    18    1
    25    17    38    1
    26    17    39    1
    27    18    19    1
    28    18    24    1
    29    18    20    1
    30    20    21    1
    31    20    40    1
    32    20    41    1
    33    21    22    1
    34    21    42    1
    35    21    43    1
    36    22    23    1
    37    22    44    1
    38    22    45    1
    39    23    24    1
    40    23    46    1
    41    23    47    1
    42    24    25    1
    43    24    26    1
    44    26    27    1
    45    27    32   ar
    46    27    28   ar
    47    28    29   ar
    48    29    30   ar
    49    29    48    1
    50    30    31   ar
    51    30    49    1
    52    31    32   ar
    53    31    50    1
@<TRIPOS>SUBSTRUCTURE
     1 ZINC000543429378        1 TEMP              0 ****  ****    0 ROOT


##########                                Name:    ZINC000507831344
##########                DOCK_Rotatable_Bonds:                   6
##########                         Heavy_Atoms:                  31
##########                    Molecular_Weight:              422.53
##########                DOCK_Rotatable_Bonds:                   6
##########                       Formal_Charge:          -0.0200002
##########                     HBond_Acceptors:                   8
##########                        HBond_Donors:                   2
##########                         Heavy_Atoms:                  31
##########                          Grid_Score:          -31.209904
##########                     Grid_vdw_energy:          -31.430904
##########                      Grid_es_energy:            0.221001
##########           Internal_energy_repulsive:          129.771515

@<TRIPOS>MOLECULE
ZINC000507831344
 61 64 1 0 0
SMALL
USER_CHARGES


@<TRIPOS>ATOM
      1 C1        -12.4102   -0.1179   62.7194 C.3     1  ZINC000507831344   -0.1000
      2 C2        -12.8708   -0.4311   61.3191 C.ar    1  ZINC000507831344   -0.0800
      3 C3        -11.9716   -0.4254   60.2688 C.ar    1  ZINC000507831344   -0.0800
      4 C4        -12.4420   -0.7215   58.9903 C.ar    1  ZINC000507831344    0.0900
      5 N5        -11.5661   -0.7279   57.8959 N.am    1  ZINC000507831344   -0.6700
      6 C6        -10.8063    0.3541   57.6344 C.2     1  ZINC000507831344    0.5100
      7 O7        -10.8806    1.3336   58.3461 O.2     1  ZINC000507831344   -0.5100
      8 C8         -9.8646    0.3472   56.4579 C.3     1  ZINC000507831344   -0.1400
      9 C9        -10.6376    0.6944   55.1839 C.3     1  ZINC000507831344   -0.0500
     10 C10        -9.7847    0.3881   53.9798 C.2     1  ZINC000507831344   -0.2200
     11 C11        -8.7661    1.2179   53.6317 C.2     1  ZINC000507831344    0.2100
     12 C12        -8.4773    2.4534   54.4448 C.3     1  ZINC000507831344   -0.1400
     13 N13        -8.0106    0.9197   52.5412 N.pl3   1  ZINC000507831344   -0.3000
     14 N14        -6.9201    1.5673   51.9484 N.am    1  ZINC000507831344   -0.5100
     15 C15        -6.5312    0.8524   50.8753 C.2     1  ZINC000507831344    0.5500
     16 O16        -5.6077    1.1312   50.1278 O.2     1  ZINC000507831344   -0.5400
     17 C17        -7.3633   -0.2605   50.7640 C.2     1  ZINC000507831344   -0.3500
     18 C18        -8.2831   -0.2085   51.8091 C.2     1  ZINC000507831344    0.3500
     19 N19        -9.2879   -1.0197   52.1598 N.2     1  ZINC000507831344   -0.4800
     20 C20       -10.0307   -0.7565   53.2133 C.2     1  ZINC000507831344    0.2500
     21 C21       -11.1566   -1.6848   53.5895 C.3     1  ZINC000507831344   -0.1200
     22 C22       -13.7865   -1.0102   58.8145 C.ar    1  ZINC000507831344    0.0800
     23 N23       -14.6172   -1.0066   59.8399 N.ar    1  ZINC000507831344   -0.4900
     24 C24       -14.2048   -0.7353   61.0679 C.ar    1  ZINC000507831344    0.2800
     25 N25       -15.1183   -0.7440   62.1184 N.3     1  ZINC000507831344   -0.4800
     26 C26       -14.6230   -1.5526   63.2398 C.3     1  ZINC000507831344    0.0600
     27 C27       -15.7093   -1.6593   64.3124 C.3     1  ZINC000507831344   -0.1200
     28 C28       -16.0813   -0.2551   64.7965 C.3     1  ZINC000507831344   -0.1200
     29 C29       -16.5480    0.5812   63.6018 C.3     1  ZINC000507831344   -0.1100
     30 C30       -15.4374    0.6229   62.5497 C.3     1  ZINC000507831344    0.0900
     31 H31       -14.5483    1.0854   62.9784 H       1  ZINC000507831344    0.0600
     32 C32       -15.9070    1.4409   61.3449 C.3     1  ZINC000507831344   -0.1400
     33 H33       -12.1864   -1.0465   63.2445 H       1  ZINC000507831344    0.0700
     34 H34       -11.5138    0.5009   62.6772 H       1  ZINC000507831344    0.0600
     35 H35       -13.1974    0.4185   63.2493 H       1  ZINC000507831344    0.0800
     36 H36       -10.9294   -0.1965   60.4349 H       1  ZINC000507831344    0.1500
     37 H37       -11.5068   -1.5112   57.3267 H       1  ZINC000507831344    0.4100
     38 H38        -9.0780    1.0845   56.6179 H       1  ZINC000507831344    0.1000
     39 H39        -9.4196   -0.6424   56.3545 H       1  ZINC000507831344    0.1000
     40 H40       -11.5522    0.1030   55.1412 H       1  ZINC000507831344    0.0900
     41 H41       -10.8904    1.7547   55.1899 H       1  ZINC000507831344    0.1000
     42 H42        -7.7650    2.2110   55.2334 H       1  ZINC000507831344    0.1000
     43 H43        -8.0558    3.2234   53.7984 H       1  ZINC000507831344    0.0800
     44 H44        -9.4023    2.8195   54.8905 H       1  ZINC000507831344    0.1100
     45 H45        -6.5136    2.3918   52.2580 H       1  ZINC000507831344    0.4400
     46 H46        -7.3055   -1.0254   50.0039 H       1  ZINC000507831344    0.1700
     47 H47       -11.2002   -2.5099   52.8784 H       1  ZINC000507831344    0.0900
     48 H48       -10.9844   -2.0776   54.5915 H       1  ZINC000507831344    0.1000
     49 H49       -12.0997   -1.1385   53.5704 H       1  ZINC000507831344    0.0900
     50 H50       -14.1584   -1.2402   57.8271 H       1  ZINC000507831344    0.1600
     51 H51       -14.3659   -2.5498   62.8827 H       1  ZINC000507831344    0.0700
     52 H52       -13.7377   -1.0800   63.6651 H       1  ZINC000507831344    0.0500
     53 H53       -16.5900   -2.1443   63.8914 H       1  ZINC000507831344    0.0700
     54 H54       -15.3358   -2.2464   65.1514 H       1  ZINC000507831344    0.0700
     55 H55       -16.8852   -0.3236   65.5294 H       1  ZINC000507831344    0.0700
     56 H56       -15.2105    0.2156   65.2527 H       1  ZINC000507831344    0.0600
     57 H57       -17.4419    0.1315   63.1697 H       1  ZINC000507831344    0.0700
     58 H58       -16.7738    1.5948   63.9330 H       1  ZINC000507831344    0.0700
     59 H59       -16.0596    2.4771   61.6465 H       1  ZINC000507831344    0.0600
     60 H60       -15.1516    1.3984   60.5602 H       1  ZINC000507831344    0.0500
     61 H61       -16.8441    1.0297   60.9697 H       1  ZINC000507831344    0.0600
@<TRIPOS>BOND
     1     1     2    1
     2     1    33    1
     3     1    34    1
     4     1    35    1
     5     2    24   ar
     6     2     3   ar
     7     3     4   ar
     8     3    36    1
     9     4     5    1
    10     4    22   ar
    11     5     6   am
    12     5    37    1
    13     6     7    2
    14     6     8    1
    15     8     9    1
    16     8    38    1
    17     8    39    1
    18     9    10    1
    19     9    40    1
    20     9    41    1
    21    10    20    1
    22    10    11    2
    23    11    12    1
    24    11    13    1
    25    12    42    1
    26    12    43    1
    27    12    44    1
    28    13    18    1
    29    13    14    1
    30    14    15   am
    31    14    45    1
    32    15    16    2
    33    15    17    1
    34    17    18    2
    35    17    46    1
    36    18    19    1
    37    19    20    2
    38    20    21    1
    39    21    47    1
    40    21    48    1
    41    21    49    1
    42    22    23   ar
    43    22    50    1
    44    23    24   ar
    45    24    25    1
    46    25    30    1
    47    25    26    1
    48    26    27    1
    49    26    51    1
    50    26    52    1
    51    27    28    1
    52    27    53    1
    53    27    54    1
    54    28    29    1
    55    28    55    1
    56    28    56    1
    57    29    30    1
    58    29    57    1
    59    29    58    1
    60    30    31    1
    61    30    32    1
    62    32    59    1
    63    32    60    1
    64    32    61    1
@<TRIPOS>SUBSTRUCTURE
     1 ZINC000507831344        1 TEMP              0 ****  ****    0 ROOT


##########                                Name:    ZINC000863216249
##########                DOCK_Rotatable_Bonds:                   5
##########                         Heavy_Atoms:                  23
##########                    Molecular_Weight:             396.351
##########                DOCK_Rotatable_Bonds:                   5
##########                       Formal_Charge:         -0.00999944
##########                     HBond_Acceptors:                   5
##########                        HBond_Donors:                   1
##########                         Heavy_Atoms:                  23
##########                          Grid_Score:          -31.190235
##########                     Grid_vdw_energy:          -30.860142
##########                      Grid_es_energy:           -0.330093
##########           Internal_energy_repulsive:           25.333496

@<TRIPOS>MOLECULE
ZINC000863216249
 45 48 1 0 0
SMALL
USER_CHARGES


@<TRIPOS>ATOM
      1 S1         -8.7563    1.1103   57.1900 S.2     1  ZINC000863216249   -0.5900
      2 C2         -9.6555   -0.1673   56.4901 C.2     1  ZINC000863216249    0.5600
      3 N3         -9.9266   -0.1564   55.1699 N.am    1  ZINC000863216249   -0.6800
      4 C4         -9.4569    0.9519   54.3349 C.3     1  ZINC000863216249    0.1200
      5 C5        -10.1250    0.8738   52.9607 C.3     1  ZINC000863216249    0.0400
      6 N6         -9.3226    1.6207   51.9829 N.3     1  ZINC000863216249   -0.5300
      7 C7         -8.0967    0.8867   51.6366 C.3     1  ZINC000863216249    0.0000
      8 C8         -7.3221    1.6703   50.5737 C.3     1  ZINC000863216249    0.0600
      9 O9         -7.0457    2.9848   51.0647 O.3     1  ZINC000863216249   -0.3800
     10 C10        -8.2173    3.7282   51.4112 C.3     1  ZINC000863216249    0.0600
     11 C11        -9.0010    2.9654   52.4826 C.3     1  ZINC000863216249    0.0200
     12 N12       -10.0877   -1.1870   57.2584 N.am    1  ZINC000863216249   -0.5100
     13 C13        -9.8557   -1.3097   58.7020 C.3     1  ZINC000863216249    0.1200
     14 C14       -10.5375   -2.6223   59.1005 C.3     1  ZINC000863216249   -0.1100
     15 C15        -9.9464   -3.5372   60.1660 C.3     1  ZINC000863216249   -0.1500
     16 C16       -11.2479   -2.7782   60.4394 C.3     1  ZINC000863216249   -0.1500
     17 C17       -11.1234   -3.1674   57.8237 C.ar    1  ZINC000863216249   -0.0700
     18 C18       -11.8466   -4.3164   57.5680 C.ar    1  ZINC000863216249   -0.0800
     19 C19       -12.2786   -4.5957   56.2849 C.ar    1  ZINC000863216249   -0.1000
     20 C20       -11.9852   -3.7206   55.2543 C.ar    1  ZINC000863216249   -0.0700
     21 Br21      -12.5756   -4.1001   53.4984 Br      1  ZINC000863216249   -0.0400
     22 C22       -11.2633   -2.5718   55.5042 C.ar    1  ZINC000863216249   -0.0900
     23 C23       -10.8282   -2.2804   56.7977 C.ar    1  ZINC000863216249    0.1400
     24 H24       -10.4328   -0.8823   54.7727 H       1  ZINC000863216249    0.4000
     25 H25        -9.7129    1.8988   54.8101 H       1  ZINC000863216249    0.0900
     26 H26        -8.3753    0.8851   54.2173 H       1  ZINC000863216249    0.1000
     27 H27       -10.1975   -0.1687   52.6507 H       1  ZINC000863216249    0.0900
     28 H28       -11.1239    1.3063   53.0173 H       1  ZINC000863216249    0.0400
     29 H29        -7.4781    0.7712   52.5266 H       1  ZINC000863216249    0.0500
     30 H30        -8.3593   -0.0960   51.2450 H       1  ZINC000863216249    0.1000
     31 H31        -6.3848    1.1587   50.3554 H       1  ZINC000863216249    0.1000
     32 H32        -7.9199    1.7396   49.6649 H       1  ZINC000863216249    0.0600
     33 H33        -7.9273    4.7049   51.7985 H       1  ZINC000863216249    0.1000
     34 H34        -8.8411    3.8572   50.5267 H       1  ZINC000863216249    0.0600
     35 H35        -9.9235    3.5001   52.7085 H       1  ZINC000863216249    0.0900
     36 H36        -8.3967    2.8831   53.3860 H       1  ZINC000863216249    0.0500
     37 H37        -8.7872   -1.3586   58.9115 H       1  ZINC000863216249    0.0900
     38 H38       -10.3088   -0.4713   59.2313 H       1  ZINC000863216249    0.0900
     39 H39       -10.0155   -4.6124   60.0014 H       1  ZINC000863216249    0.1100
     40 H40        -9.0474   -3.1966   60.6799 H       1  ZINC000863216249    0.1100
     41 H41       -11.2050   -1.9384   61.1330 H       1  ZINC000863216249    0.1100
     42 H42       -12.1731   -3.3543   60.4545 H       1  ZINC000863216249    0.1100
     43 H43       -12.0748   -4.9990   58.3732 H       1  ZINC000863216249    0.1400
     44 H44       -12.8435   -5.4947   56.0875 H       1  ZINC000863216249    0.1400
     45 H45       -11.0371   -1.8927   54.6954 H       1  ZINC000863216249    0.1900
@<TRIPOS>BOND
     1     1     2    2
     2     2     3   am
     3     2    12   am
     4     3     4    1
     5     3    24    1
     6     4     5    1
     7     4    25    1
     8     4    26    1
     9     5     6    1
    10     5    27    1
    11     5    28    1
    12     6    11    1
    13     6     7    1
    14     7     8    1
    15     7    29    1
    16     7    30    1
    17     8     9    1
    18     8    31    1
    19     8    32    1
    20     9    10    1
    21    10    11    1
    22    10    33    1
    23    10    34    1
    24    11    35    1
    25    11    36    1
    26    12    23    1
    27    12    13    1
    28    13    14    1
    29    13    37    1
    30    13    38    1
    31    14    16    1
    32    14    15    1
    33    14    17    1
    34    15    16    1
    35    15    39    1
    36    15    40    1
    37    16    41    1
    38    16    42    1
    39    17    23   ar
    40    17    18   ar
    41    18    19   ar
    42    18    43    1
    43    19    20   ar
    44    19    44    1
    45    20    21    1
    46    20    22   ar
    47    22    23   ar
    48    22    45    1
@<TRIPOS>SUBSTRUCTURE
     1 ZINC000863216249        1 TEMP              0 ****  ****    0 ROOT


##########                                Name:    ZINC001060733018
##########                DOCK_Rotatable_Bonds:                   7
##########                         Heavy_Atoms:                  24
##########                    Molecular_Weight:             342.429
##########                DOCK_Rotatable_Bonds:                   7
##########                       Formal_Charge:           0.0200001
##########                     HBond_Acceptors:                   6
##########                        HBond_Donors:                   2
##########                         Heavy_Atoms:                  24
##########                          Grid_Score:          -31.171005
##########                     Grid_vdw_energy:          -27.605913
##########                      Grid_es_energy:           -3.565092
##########           Internal_energy_repulsive:            7.792891

@<TRIPOS>MOLECULE
ZINC001060733018
 52 54 1 0 0
SMALL
USER_CHARGES


@<TRIPOS>ATOM
      1 O1        -11.5263    0.8738   64.8497 O.2     1  ZINC001060733018   -0.5000
      2 C2        -10.6383    1.5871   64.4332 C.2     1  ZINC001060733018    0.4700
      3 N3         -9.7181    1.0907   63.5827 N.am    1  ZINC001060733018   -0.7100
      4 C4         -9.7881   -0.3116   63.1647 C.3     1  ZINC001060733018    0.1200
      5 C5        -10.3044   -0.3900   61.7266 C.3     1  ZINC001060733018   -0.1000
      6 H6         -9.8689    0.4188   61.1396 H       1  ZINC001060733018    0.0800
      7 C7         -9.9075   -1.7351   61.1148 C.3     1  ZINC001060733018   -0.1100
      8 C8        -10.4237   -1.8134   59.6766 C.3     1  ZINC001060733018   -0.1300
      9 C9        -11.9481   -1.6819   59.6741 C.3     1  ZINC001060733018    0.1400
     10 H10       -12.3835   -2.4907   60.2611 H       1  ZINC001060733018    0.0900
     11 N11       -12.4424   -1.7570   58.2971 N.am    1  ZINC001060733018   -0.7300
     12 C12       -12.5368   -2.9510   57.6791 C.2     1  ZINC001060733018    0.5200
     13 O13       -12.2137   -3.9634   58.2634 O.2     1  ZINC001060733018   -0.5400
     14 C14       -13.0435   -3.0279   56.2619 C.3     1  ZINC001060733018   -0.1000
     15 H15       -13.6827   -2.1690   56.0575 H       1  ZINC001060733018    0.1000
     16 C16       -13.8462   -4.3165   56.0767 C.3     1  ZINC001060733018   -0.1100
     17 C17       -14.4265   -4.3673   54.6626 C.3     1  ZINC001060733018   -0.1200
     18 C18       -13.2838   -4.4053   53.6432 C.3     1  ZINC001060733018   -0.0800
     19 C19       -12.3813   -3.1880   53.8649 C.3     1  ZINC001060733018   -0.1300
     20 C20       -12.6933   -1.9191   53.0720 C.3     1  ZINC001060733018   -0.1700
     21 C21       -11.4665   -2.7622   52.7173 C.3     1  ZINC001060733018   -0.1700
     22 C22       -11.8563   -3.0229   55.2941 C.3     1  ZINC001060733018   -0.0600
     23 C23       -12.3450   -0.3369   60.2859 C.3     1  ZINC001060733018   -0.1200
     24 C24       -11.8287   -0.2585   61.7241 C.3     1  ZINC001060733018   -0.1100
     25 C25       -10.5674    3.0301   64.8618 C.3     1  ZINC001060733018    0.2600
     26 F26       -11.8626    3.5280   65.0395 F       1  ZINC001060733018   -0.1700
     27 F27        -9.8620    3.1248   66.0663 F       1  ZINC001060733018   -0.1900
     28 H28        -9.0095    1.6619   63.2474 H       1  ZINC001060733018    0.4100
     29 H29        -8.7947   -0.7570   63.2189 H       1  ZINC001060733018    0.0800
     30 H30       -10.4659   -0.8539   63.8241 H       1  ZINC001060733018    0.0800
     31 H31        -8.8216   -1.8287   61.1166 H       1  ZINC001060733018    0.0700
     32 H32       -10.3429   -2.5437   61.7017 H       1  ZINC001060733018    0.0700
     33 H33       -10.1411   -2.7716   59.2408 H       1  ZINC001060733018    0.0700
     34 H34        -9.9883   -1.0047   59.0898 H       1  ZINC001060733018    0.0600
     35 H35       -12.7019   -0.9473   57.8301 H       1  ZINC001060733018    0.4000
     36 H36       -13.1932   -5.1755   56.2314 H       1  ZINC001060733018    0.0700
     37 H37       -14.6594   -4.3442   56.8020 H       1  ZINC001060733018    0.0700
     38 H38       -15.0406   -5.2613   54.5536 H       1  ZINC001060733018    0.0700
     39 H39       -15.0390   -3.4825   54.4891 H       1  ZINC001060733018    0.0700
     40 H40       -12.7045   -5.3187   53.7781 H       1  ZINC001060733018    0.0700
     41 H41       -13.6939   -4.3768   52.6338 H       1  ZINC001060733018    0.0700
     42 H42       -13.5402   -1.9492   52.3865 H       1  ZINC001060733018    0.0900
     43 H43       -12.5211   -0.9623   53.5651 H       1  ZINC001060733018    0.0900
     44 H44       -10.4872   -2.3601   52.9769 H       1  ZINC001060733018    0.0900
     45 H45       -11.5060   -3.3473   51.7984 H       1  ZINC001060733018    0.0900
     46 H46       -11.3198   -2.0779   55.3791 H       1  ZINC001060733018    0.0700
     47 H47       -11.1859   -3.8481   55.5344 H       1  ZINC001060733018    0.0800
     48 H48       -13.4310   -0.2432   60.2840 H       1  ZINC001060733018    0.0700
     49 H49       -11.9096    0.4719   59.6990 H       1  ZINC001060733018    0.0700
     50 H50       -12.2642   -1.0672   62.3109 H       1  ZINC001060733018    0.0700
     51 H51       -12.1115    0.6997   62.1599 H       1  ZINC001060733018    0.0700
     52 H52       -10.0564    3.6122   64.0949 H       1  ZINC001060733018    0.1400
@<TRIPOS>BOND
     1     1     2    2
     2     2     3   am
     3     2    25    1
     4     3     4    1
     5     3    28    1
     6     4     5    1
     7     4    29    1
     8     4    30    1
     9     5     6    1
    10     5    24    1
    11     5     7    1
    12     7     8    1
    13     7    31    1
    14     7    32    1
    15     8     9    1
    16     8    33    1
    17     8    34    1
    18     9    10    1
    19     9    11    1
    20     9    23    1
    21    11    12   am
    22    11    35    1
    23    12    13    2
    24    12    14    1
    25    14    15    1
    26    14    22    1
    27    14    16    1
    28    16    17    1
    29    16    36    1
    30    16    37    1
    31    17    18    1
    32    17    38    1
    33    17    39    1
    34    18    19    1
    35    18    40    1
    36    18    41    1
    37    19    21    1
    38    19    20    1
    39    19    22    1
    40    20    21    1
    41    20    42    1
    42    20    43    1
    43    21    44    1
    44    21    45    1
    45    22    46    1
    46    22    47    1
    47    23    24    1
    48    23    48    1
    49    23    49    1
    50    24    50    1
    51    24    51    1
    52    25    26    1
    53    25    27    1
    54    25    52    1
@<TRIPOS>SUBSTRUCTURE
     1 ZINC001060733018        1 TEMP              0 ****  ****    0 ROOT


##########                                Name:    ZINC000826052721
##########                DOCK_Rotatable_Bonds:                   3
##########                         Heavy_Atoms:                  29
##########                    Molecular_Weight:             393.399
##########                DOCK_Rotatable_Bonds:                   3
##########                       Formal_Charge:        -4.47035e-07
##########                     HBond_Acceptors:                   9
##########                        HBond_Donors:                   2
##########                         Heavy_Atoms:                  29
##########                          Grid_Score:          -31.143909
##########                     Grid_vdw_energy:          -31.040209
##########                      Grid_es_energy:           -0.103701
##########           Internal_energy_repulsive:           12.716607

@<TRIPOS>MOLECULE
ZINC000826052721
 46 50 1 0 0
SMALL
USER_CHARGES


@<TRIPOS>ATOM
      1 C1         -7.5888    2.1172   56.9653 C.3     1  ZINC000826052721   -0.0400
      2 N2         -8.3945    0.9339   56.6356 N.4     1  ZINC000826052721   -0.3800
      3 H3         -7.7994    0.1200   56.5976 H       1  ZINC000826052721    0.4300
      4 C4         -9.0428    1.1286   55.3356 C.3     1  ZINC000826052721    0.0500
      5 C5         -9.9906   -0.0040   55.0416 C.ar    1  ZINC000826052721   -0.1300
      6 C6        -10.3936   -0.2079   53.7306 C.ar    1  ZINC000826052721   -0.1000
      7 C7        -11.2664   -1.2318   53.4202 C.ar    1  ZINC000826052721   -0.1000
      8 C8        -11.7419   -2.0587   54.4206 C.ar    1  ZINC000826052721   -0.0800
      9 C9        -11.3404   -1.8581   55.7266 C.ar    1  ZINC000826052721   -0.0800
     10 C10       -10.4636   -0.8313   56.0386 C.ar    1  ZINC000826052721   -0.1200
     11 C11       -10.0470   -0.6476   57.4756 C.3     1  ZINC000826052721    0.1100
     12 H12        -9.3129   -1.4087   57.7402 H       1  ZINC000826052721    0.1100
     13 N13       -11.2230   -0.7798   58.3458 N.3     1  ZINC000826052721   -0.6200
     14 C14       -10.8647   -0.6985   59.6786 C.ar    1  ZINC000826052721    0.1600
     15 C15       -10.3437   -1.8065   60.3557 C.ar    1  ZINC000826052721   -0.0400
     16 C16       -10.1656   -3.0938   59.6532 C.2     1  ZINC000826052721    0.0700
     17 N17        -9.1708   -3.9675   59.8258 N.2     1  ZINC000826052721   -0.3800
     18 N18        -9.3838   -4.9588   59.0295 N.2     1  ZINC000826052721   -0.1600
     19 N19       -10.4610   -4.7423   58.3596 N.2     1  ZINC000826052721   -0.1700
     20 N20       -10.9645   -3.6104   58.7164 N.pl3   1  ZINC000826052721   -0.3400
     21 C21        -9.9879   -1.6819   61.7064 C.ar    1  ZINC000826052721    0.1800
     22 N22       -10.1394   -0.5551   62.3557 N.ar    1  ZINC000826052721   -0.4700
     23 C23       -10.6372    0.5407   61.7671 C.ar    1  ZINC000826052721    0.0900
     24 C24       -10.7910    1.7382   62.4891 C.ar    1  ZINC000826052721    0.1700
     25 F25       -10.4345    1.7951   63.7909 F       1  ZINC000826052721   -0.1100
     26 C26       -11.3001    2.8417   61.8704 C.ar    1  ZINC000826052721   -0.1900
     27 C27       -11.6738    2.8037   60.5284 C.ar    1  ZINC000826052721    0.1300
     28 F28       -12.1757    3.9131   59.9431 F       1  ZINC000826052721   -0.1300
     29 C29       -11.5389    1.6581   59.7984 C.ar    1  ZINC000826052721   -0.1500
     30 C30       -11.0181    0.5062   60.4046 C.ar    1  ZINC000826052721   -0.0600
     31 C31        -9.4305    0.7396   57.6611 C.3     1  ZINC000826052721    0.0000
     32 H32        -8.2336    2.9950   57.0095 H       1  ZINC000826052721    0.1200
     33 H33        -7.1073    1.9710   57.9323 H       1  ZINC000826052721    0.1300
     34 H34        -6.8278    2.2636   56.1989 H       1  ZINC000826052721    0.1200
     35 H35        -8.2812    1.1713   54.5569 H       1  ZINC000826052721    0.1400
     36 H36        -9.5969    2.0672   55.3472 H       1  ZINC000826052721    0.1400
     37 H37       -10.0225    0.4374   52.9481 H       1  ZINC000826052721    0.1300
     38 H38       -11.5769   -1.3865   52.3975 H       1  ZINC000826052721    0.1300
     39 H39       -12.4253   -2.8600   54.1813 H       1  ZINC000826052721    0.1300
     40 H40       -11.7112   -2.5045   56.5083 H       1  ZINC000826052721    0.1400
     41 H41       -11.7185   -1.6380   58.1563 H       1  ZINC000826052721    0.4100
     42 H42        -9.5826   -2.5381   62.2251 H       1  ZINC000826052721    0.1800
     43 H43       -11.4159    3.7588   62.4290 H       1  ZINC000826052721    0.1600
     44 H44       -11.8321    1.6392   58.7591 H       1  ZINC000826052721    0.1400
     45 H45       -10.2028    1.5008   57.5511 H       1  ZINC000826052721    0.1400
     46 H46        -8.9812    0.8108   58.6517 H       1  ZINC000826052721    0.1400
@<TRIPOS>BOND
     1     1     2    1
     2     1    32    1
     3     1    33    1
     4     1    34    1
     5     2     3    1
     6     2    31    1
     7     2     4    1
     8     4     5    1
     9     4    35    1
    10     4    36    1
    11     5    10   ar
    12     5     6   ar
    13     6     7   ar
    14     6    37    1
    15     7     8   ar
    16     7    38    1
    17     8     9   ar
    18     8    39    1
    19     9    10   ar
    20     9    40    1
    21    10    11    1
    22    11    12    1
    23    11    13    1
    24    11    31    1
    25    13    14    1
    26    13    41    1
    27    14    30   ar
    28    14    15   ar
    29    15    16    1
    30    15    21   ar
    31    16    20    1
    32    16    17    2
    33    17    18    1
    34    18    19    2
    35    19    20    1
    36    21    22   ar
    37    21    42    1
    38    22    23   ar
    39    23    30   ar
    40    23    24   ar
    41    24    25    1
    42    24    26   ar
    43    26    27   ar
    44    26    43    1
    45    27    28    1
    46    27    29   ar
    47    29    30   ar
    48    29    44    1
    49    31    45    1
    50    31    46    1
@<TRIPOS>SUBSTRUCTURE
     1 ZINC000826052721        1 TEMP              0 ****  ****    0 ROOT


##########                                Name:    ZINC000463741321
##########                DOCK_Rotatable_Bonds:                   7
##########                         Heavy_Atoms:                  26
##########                    Molecular_Weight:             354.467
##########                DOCK_Rotatable_Bonds:                   7
##########                       Formal_Charge:         -6.4075e-07
##########                     HBond_Acceptors:                   4
##########                        HBond_Donors:                   1
##########                         Heavy_Atoms:                  26
##########                          Grid_Score:          -31.127489
##########                     Grid_vdw_energy:          -31.243830
##########                      Grid_es_energy:            0.116341
##########           Internal_energy_repulsive:           12.076685

@<TRIPOS>MOLECULE
ZINC000463741321
 53 55 1 0 0
SMALL
USER_CHARGES


@<TRIPOS>ATOM
      1 C1        -14.3111   -5.8137   55.6186 C.3     1  ZINC000463741321   -0.1500
      2 C2        -13.5378   -4.4998   55.4882 C.3     1  ZINC000463741321   -0.1100
      3 H3        -12.6139   -4.6752   54.9371 H       1  ZINC000463741321    0.1000
      4 C4        -14.3931   -3.4771   54.7376 C.3     1  ZINC000463741321   -0.0900
      5 C5        -14.0802   -3.5502   53.2417 C.3     1  ZINC000463741321   -0.0800
      6 C6        -12.8733   -2.7001   52.9389 C.ar    1  ZINC000463741321   -0.1200
      7 C7        -12.9870   -1.3233   52.9111 C.ar    1  ZINC000463741321   -0.0900
      8 C8        -11.8799   -0.5431   52.6332 C.ar    1  ZINC000463741321   -0.1300
      9 C9        -10.6583   -1.1393   52.3824 C.ar    1  ZINC000463741321   -0.1000
     10 C10       -10.5422   -2.5163   52.4092 C.ar    1  ZINC000463741321   -0.1500
     11 C11       -11.6486   -3.2982   52.6939 C.ar    1  ZINC000463741321    0.1000
     12 F12       -11.5363   -4.6443   52.7203 F       1  ZINC000463741321   -0.1400
     13 C13       -13.2111   -3.9708   56.8609 C.2     1  ZINC000463741321    0.5200
     14 O14       -14.0887   -3.8518   57.6896 O.2     1  ZINC000463741321   -0.5300
     15 N15       -11.9438   -3.6299   57.1678 N.am    1  ZINC000463741321   -0.7300
     16 C16       -11.6266   -3.1139   58.5018 C.3     1  ZINC000463741321    0.1500
     17 H17       -12.3679   -3.4719   59.2161 H       1  ZINC000463741321    0.1000
     18 C18       -10.2364   -3.6003   58.9207 C.3     1  ZINC000463741321   -0.1300
     19 C19        -9.8881   -3.0080   60.2890 C.3     1  ZINC000463741321   -0.1200
     20 C20        -9.9514   -1.4810   60.2096 C.3     1  ZINC000463741321    0.0600
     21 N21       -11.3011   -1.0662   59.8060 N.3     1  ZINC000463741321   -0.4800
     22 C22       -11.4319    0.3237   59.8508 C.ar    1  ZINC000463741321    0.1100
     23 C23       -12.0820    0.9276   60.9197 C.ar    1  ZINC000463741321   -0.1700
     24 C24       -12.2091    2.3021   60.9612 C.ar    1  ZINC000463741321   -0.0900
     25 C25       -11.6906    3.0771   59.9401 C.ar    1  ZINC000463741321   -0.1500
     26 C26       -11.0428    2.4793   58.8746 C.ar    1  ZINC000463741321   -0.0900
     27 C27       -10.9072    1.1056   58.8296 C.ar    1  ZINC000463741321   -0.1400
     28 C28       -11.6405   -1.5839   58.4743 C.3     1  ZINC000463741321    0.0500
     29 H29       -15.2350   -5.6383   56.1698 H       1  ZINC000463741321    0.0600
     30 H30       -14.5473   -6.1963   54.6258 H       1  ZINC000463741321    0.0700
     31 H31       -13.7017   -6.5423   56.1533 H       1  ZINC000463741321    0.0600
     32 H32       -15.4483   -3.6973   54.8992 H       1  ZINC000463741321    0.0700
     33 H33       -14.1702   -2.4761   55.1070 H       1  ZINC000463741321    0.0700
     34 H34       -13.8755   -4.5840   52.9635 H       1  ZINC000463741321    0.0800
     35 H35       -14.9348   -3.1834   52.6734 H       1  ZINC000463741321    0.0800
     36 H36       -13.9411   -0.8565   53.1061 H       1  ZINC000463741321    0.1300
     37 H37       -11.9698    0.5329   52.6117 H       1  ZINC000463741321    0.1300
     38 H38        -9.7942   -0.5288   52.1651 H       1  ZINC000463741321    0.1300
     39 H39        -9.5877   -2.9819   52.2126 H       1  ZINC000463741321    0.1400
     40 H40       -11.2418   -3.7262   56.5054 H       1  ZINC000463741321    0.4000
     41 H41       -10.2349   -4.6884   58.9837 H       1  ZINC000463741321    0.0700
     42 H42        -9.5001   -3.2759   58.1853 H       1  ZINC000463741321    0.0600
     43 H43       -10.6020   -3.3637   61.0319 H       1  ZINC000463741321    0.0800
     44 H44        -8.8820   -3.3161   60.5735 H       1  ZINC000463741321    0.0800
     45 H45        -9.7179   -1.0566   61.1860 H       1  ZINC000463741321    0.0900
     46 H46        -9.2276   -1.1250   59.4765 H       1  ZINC000463741321    0.0500
     47 H47       -12.4878    0.3227   61.7171 H       1  ZINC000463741321    0.1200
     48 H48       -12.7144    2.7722   61.7919 H       1  ZINC000463741321    0.1200
     49 H49       -11.7921    4.1518   59.9747 H       1  ZINC000463741321    0.1200
     50 H50       -10.6390    3.0875   58.0787 H       1  ZINC000463741321    0.1200
     51 H51       -10.4009    0.6393   57.9974 H       1  ZINC000463741321    0.1300
     52 H52       -10.9090   -1.2278   57.7489 H       1  ZINC000463741321    0.0500
     53 H53       -12.6332   -1.2339   58.1908 H       1  ZINC000463741321    0.0900
@<TRIPOS>BOND
     1     1     2    1
     2     1    29    1
     3     1    30    1
     4     1    31    1
     5     2     3    1
     6     2     4    1
     7     2    13    1
     8     4     5    1
     9     4    32    1
    10     4    33    1
    11     5     6    1
    12     5    34    1
    13     5    35    1
    14     6    11   ar
    15     6     7   ar
    16     7     8   ar
    17     7    36    1
    18     8     9   ar
    19     8    37    1
    20     9    10   ar
    21     9    38    1
    22    10    11   ar
    23    10    39    1
    24    11    12    1
    25    13    14    2
    26    13    15   am
    27    15    16    1
    28    15    40    1
    29    16    17    1
    30    16    28    1
    31    16    18    1
    32    18    19    1
    33    18    41    1
    34    18    42    1
    35    19    20    1
    36    19    43    1
    37    19    44    1
    38    20    21    1
    39    20    45    1
    40    20    46    1
    41    21    22    1
    42    21    28    1
    43    22    27   ar
    44    22    23   ar
    45    23    24   ar
    46    23    47    1
    47    24    25   ar
    48    24    48    1
    49    25    26   ar
    50    25    49    1
    51    26    27   ar
    52    26    50    1
    53    27    51    1
    54    28    52    1
    55    28    53    1
@<TRIPOS>SUBSTRUCTURE
     1 ZINC000463741321        1 TEMP              0 ****  ****    0 ROOT


##########                                Name:    ZINC000512239524
##########                DOCK_Rotatable_Bonds:                   9
##########                         Heavy_Atoms:                  31
##########                    Molecular_Weight:             424.518
##########                DOCK_Rotatable_Bonds:                   9
##########                       Formal_Charge:          0.00999919
##########                     HBond_Acceptors:                   7
##########                        HBond_Donors:                   1
##########                         Heavy_Atoms:                  31
##########                          Grid_Score:          -31.124113
##########                     Grid_vdw_energy:          -30.359316
##########                      Grid_es_energy:           -0.764797
##########           Internal_energy_repulsive:           25.208393

@<TRIPOS>MOLECULE
ZINC000512239524
 60 63 1 0 0
SMALL
USER_CHARGES


@<TRIPOS>ATOM
      1 C1        -14.3780   -6.0381   56.3921 C.3     1  ZINC000512239524   -0.1600
      2 C2        -14.5905   -4.5245   56.3227 C.3     1  ZINC000512239524    0.2000
      3 H3        -15.6446   -4.2979   56.4826 H       1  ZINC000512239524    0.1100
      4 N4        -13.7878   -3.8707   57.3592 N.am    1  ZINC000512239524   -0.7400
      5 C5        -14.3044   -3.6753   58.5886 C.2     1  ZINC000512239524    0.7100
      6 O6        -15.4369   -4.0417   58.8373 O.2     1  ZINC000512239524   -0.5800
      7 N7        -13.5660   -3.0738   59.5421 N.am    1  ZINC000512239524   -0.6300
      8 C8        -12.1983   -2.6203   59.2549 C.3     1  ZINC000512239524    0.1300
      9 C9        -12.0804   -1.1400   59.6316 C.3     1  ZINC000512239524   -0.1100
     10 C10       -12.5120   -0.9525   61.0879 C.3     1  ZINC000512239524   -0.1000
     11 C11       -12.3650    0.4972   61.4723 C.2     1  ZINC000512239524    0.5300
     12 O12       -12.9703    1.3514   60.8600 O.2     1  ZINC000512239524   -0.5300
     13 N13       -11.5608    0.8446   62.4966 N.am    1  ZINC000512239524   -0.5800
     14 C14       -11.4193    2.2537   62.8714 C.3     1  ZINC000512239524    0.1500
     15 C15       -12.0777    2.4869   64.2068 C.ar    1  ZINC000512239524   -0.1100
     16 C16       -11.3285    2.4253   65.3669 C.ar    1  ZINC000512239524   -0.0900
     17 C17       -11.9326    2.6393   66.5917 C.ar    1  ZINC000512239524   -0.1200
     18 C18       -13.2855    2.9152   66.6565 C.ar    1  ZINC000512239524   -0.1100
     19 C19       -14.0344    2.9777   65.4963 C.ar    1  ZINC000512239524   -0.1200
     20 C20       -13.4297    2.7680   64.2711 C.ar    1  ZINC000512239524   -0.1100
     21 C21       -10.8283   -0.1870   63.2351 C.3     1  ZINC000512239524    0.0700
     22 C22        -9.6281   -0.8345   62.5416 C.3     1  ZINC000512239524   -0.1900
     23 C23        -9.4076    0.1472   63.6941 C.3     1  ZINC000512239524   -0.2000
     24 C24       -13.9739   -1.3765   61.2471 C.3     1  ZINC000512239524   -0.1400
     25 C25       -14.1154   -2.8538   60.8869 C.3     1  ZINC000512239524    0.1100
     26 C26       -14.1681   -4.0197   54.9670 C.ar    1  ZINC000512239524   -0.0800
     27 C27       -12.8605   -3.6250   54.7327 C.ar    1  ZINC000512239524   -0.1400
     28 C28       -12.5093   -3.1675   53.4764 C.ar    1  ZINC000512239524    0.1000
     29 N29       -13.4008   -3.1036   52.5070 N.ar    1  ZINC000512239524   -0.4600
     30 C30       -14.6540   -3.4701   52.6917 C.ar    1  ZINC000512239524    0.0800
     31 C31       -15.0785   -3.9440   53.9210 C.ar    1  ZINC000512239524    0.0600
     32 F32       -16.3638   -4.3179   54.1037 F       1  ZINC000512239524   -0.1200
     33 H33       -14.6835   -6.4033   57.3725 H       1  ZINC000512239524    0.0700
     34 H34       -14.9753   -6.5246   55.6208 H       1  ZINC000512239524    0.0700
     35 H35       -13.3239   -6.2647   56.2322 H       1  ZINC000512239524    0.0600
     36 H36       -12.8844   -3.5784   57.1607 H       1  ZINC000512239524    0.3900
     37 H37       -11.4890   -3.2042   59.8413 H       1  ZINC000512239524    0.0700
     38 H38       -11.9875   -2.7449   58.1927 H       1  ZINC000512239524    0.1000
     39 H39       -11.0464   -0.8160   59.5140 H       1  ZINC000512239524    0.0900
     40 H40       -12.7241   -0.5470   58.9820 H       1  ZINC000512239524    0.0800
     41 H41       -11.8839   -1.5652   61.7346 H       1  ZINC000512239524    0.1000
     42 H42       -10.3613    2.5072   62.9389 H       1  ZINC000512239524    0.0900
     43 H43       -11.8956    2.8799   62.1171 H       1  ZINC000512239524    0.1000
     44 H44       -10.2715    2.2098   65.3164 H       1  ZINC000512239524    0.1300
     45 H45       -11.3474    2.5905   67.4982 H       1  ZINC000512239524    0.1200
     46 H46       -13.7575    3.0817   67.6136 H       1  ZINC000512239524    0.1200
     47 H47       -15.0916    3.1930   65.5469 H       1  ZINC000512239524    0.1200
     48 H48       -14.0148    2.8169   63.3646 H       1  ZINC000512239524    0.1200
     49 H49       -11.4329   -0.8168   63.8878 H       1  ZINC000512239524    0.1300
     50 H50        -9.4430   -1.8906   62.7377 H       1  ZINC000512239524    0.1100
     51 H51        -9.3835   -0.4930   61.5358 H       1  ZINC000512239524    0.1000
     52 H52        -9.0179    1.1346   63.4466 H       1  ZINC000512239524    0.1100
     53 H53        -9.0774   -0.2629   64.6485 H       1  ZINC000512239524    0.1000
     54 H54       -14.2875   -1.2207   62.2793 H       1  ZINC000512239524    0.0900
     55 H55       -14.5998   -0.7811   60.5823 H       1  ZINC000512239524    0.0700
     56 H56       -15.1685   -3.1347   60.9032 H       1  ZINC000512239524    0.0800
     57 H57       -13.5623   -3.4596   61.6048 H       1  ZINC000512239524    0.0800
     58 H58       -12.1249   -3.6738   55.5219 H       1  ZINC000512239524    0.1400
     59 H59       -11.4920   -2.8583   53.2865 H       1  ZINC000512239524    0.1700
     60 H60       -15.3560   -3.4032   51.8737 H       1  ZINC000512239524    0.1700
@<TRIPOS>BOND
     1     1     2    1
     2     1    33    1
     3     1    34    1
     4     1    35    1
     5     2     3    1
     6     2     4    1
     7     2    26    1
     8     4     5   am
     9     4    36    1
    10     5     6    2
    11     5     7   am
    12     7    25    1
    13     7     8    1
    14     8     9    1
    15     8    37    1
    16     8    38    1
    17     9    10    1
    18     9    39    1
    19     9    40    1
    20    10    11    1
    21    10    24    1
    22    10    41    1
    23    11    12    2
    24    11    13   am
    25    13    14    1
    26    13    21    1
    27    14    15    1
    28    14    42    1
    29    14    43    1
    30    15    20   ar
    31    15    16   ar
    32    16    17   ar
    33    16    44    1
    34    17    18   ar
    35    17    45    1
    36    18    19   ar
    37    18    46    1
    38    19    20   ar
    39    19    47    1
    40    20    48    1
    41    21    23    1
    42    21    22    1
    43    21    49    1
    44    22    23    1
    45    22    50    1
    46    22    51    1
    47    23    52    1
    48    23    53    1
    49    24    25    1
    50    24    54    1
    51    24    55    1
    52    25    56    1
    53    25    57    1
    54    26    31   ar
    55    26    27   ar
    56    27    28   ar
    57    27    58    1
    58    28    29   ar
    59    28    59    1
    60    29    30   ar
    61    30    31   ar
    62    30    60    1
    63    31    32    1
@<TRIPOS>SUBSTRUCTURE
     1 ZINC000512239524        1 TEMP              0 ****  ****    0 ROOT


##########                                Name:    ZINC000151850193
##########                DOCK_Rotatable_Bonds:                  11
##########                         Heavy_Atoms:                  23
##########                    Molecular_Weight:             328.452
##########                DOCK_Rotatable_Bonds:                  11
##########                       Formal_Charge:            0.039999
##########                     HBond_Acceptors:                   6
##########                        HBond_Donors:                   2
##########                         Heavy_Atoms:                  23
##########                          Grid_Score:          -31.102327
##########                     Grid_vdw_energy:          -30.201874
##########                      Grid_es_energy:           -0.900454
##########           Internal_energy_repulsive:           30.899233

@<TRIPOS>MOLECULE
ZINC000151850193
 55 55 1 0 0
SMALL
USER_CHARGES


@<TRIPOS>ATOM
      1 C1        -15.9286   -4.0985   54.7301 C.3     1  ZINC000151850193   -0.1500
      2 C2        -14.6466   -4.7923   55.1949 C.3     1  ZINC000151850193   -0.1000
      3 C3        -13.8270   -3.8272   56.0538 C.3     1  ZINC000151850193   -0.0800
      4 C4        -14.6487   -3.1825   57.1718 C.3     1  ZINC000151850193   -0.1000
      5 C5        -15.1719   -4.2700   58.1123 C.3     1  ZINC000151850193   -0.1500
      6 C6        -12.4873   -4.4127   56.5306 C.3     1  ZINC000151850193    0.1400
      7 H7        -12.4823   -5.5012   56.5882 H       1  ZINC000151850193    0.1000
      8 N8        -11.9672   -3.7763   57.7432 N.am    1  ZINC000151850193   -0.7000
      9 C9        -10.9545   -4.3492   58.4237 C.2     1  ZINC000151850193    0.5200
     10 O10       -10.4751   -5.3924   58.0328 O.2     1  ZINC000151850193   -0.5300
     11 C11       -10.4183   -3.6937   59.6701 C.3     1  ZINC000151850193   -0.1500
     12 C12        -9.4016   -2.6178   59.2835 C.3     1  ZINC000151850193    0.1500
     13 N13        -9.3700   -1.5813   60.3184 N.am    1  ZINC000151850193   -0.7100
     14 C14       -10.0639   -0.4383   60.1488 C.2     1  ZINC000151850193    0.6500
     15 O15       -10.7143   -0.2670   59.1370 O.2     1  ZINC000151850193   -0.5600
     16 O16       -10.0361    0.5135   61.1007 O.3     1  ZINC000151850193   -0.3700
     17 C17       -10.7722    0.2449   62.3230 C.3     1  ZINC000151850193    0.1400
     18 C18       -11.1610    1.5681   62.9855 C.3     1  ZINC000151850193   -0.1800
     19 C19       -12.0366   -0.5507   61.9925 C.3     1  ZINC000151850193   -0.1400
     20 C20        -9.8948   -0.5657   63.2791 C.3     1  ZINC000151850193   -0.1800
     21 C21       -11.8744   -3.8619   55.2322 C.3     1  ZINC000151850193   -0.1700
     22 C22       -13.0046   -2.8192   55.2337 C.3     1  ZINC000151850193    0.0700
     23 H23       -13.4174   -2.6211   54.2444 H       1  ZINC000151850193    0.0800
     24 O24       -12.6811   -1.6252   55.9491 O.3     1  ZINC000151850193   -0.3700
     25 C25       -13.4141   -0.4752   55.5223 C.3     1  ZINC000151850193    0.0300
     26 H26       -16.5298   -3.8270   55.5979 H       1  ZINC000151850193    0.0600
     27 H27       -15.6725   -3.1993   54.1698 H       1  ZINC000151850193    0.0600
     28 H28       -16.4969   -4.7750   54.0917 H       1  ZINC000151850193    0.0600
     29 H29       -14.9031   -5.6737   55.7827 H       1  ZINC000151850193    0.0700
     30 H30       -14.0607   -5.0928   54.3262 H       1  ZINC000151850193    0.0700
     31 H31       -14.0203   -2.4896   57.7314 H       1  ZINC000151850193    0.0700
     32 H32       -15.4899   -2.6413   56.7385 H       1  ZINC000151850193    0.0700
     33 H33       -15.8580   -4.9204   57.5696 H       1  ZINC000151850193    0.0500
     34 H34       -14.3349   -4.8581   58.4888 H       1  ZINC000151850193    0.0500
     35 H35       -15.6955   -3.8063   58.9483 H       1  ZINC000151850193    0.0500
     36 H36       -12.3514   -2.9426   58.0564 H       1  ZINC000151850193    0.4100
     37 H37       -11.2395   -3.2360   60.2219 H       1  ZINC000151850193    0.1000
     38 H38        -9.9338   -4.4436   60.2954 H       1  ZINC000151850193    0.1000
     39 H39        -8.4134   -3.0684   59.1902 H       1  ZINC000151850193    0.0800
     40 H40        -9.6888   -2.1717   58.3314 H       1  ZINC000151850193    0.0800
     41 H41        -8.8497   -1.7176   61.1257 H       1  ZINC000151850193    0.4100
     42 H42       -11.7860    2.1456   62.3043 H       1  ZINC000151850193    0.0600
     43 H43       -11.7136    1.3665   63.9031 H       1  ZINC000151850193    0.0700
     44 H44       -10.2602    2.1350   63.2209 H       1  ZINC000151850193    0.0900
     45 H45       -11.7596   -1.4934   61.5206 H       1  ZINC000151850193    0.0700
     46 H46       -12.5892   -0.7525   62.9101 H       1  ZINC000151850193    0.0800
     47 H47       -12.6616    0.0267   61.3114 H       1  ZINC000151850193    0.0700
     48 H48        -8.9941    0.0011   63.5145 H       1  ZINC000151850193    0.0900
     49 H49       -10.4475   -0.7673   64.1967 H       1  ZINC000151850193    0.0700
     50 H50        -9.6179   -1.5084   62.8071 H       1  ZINC000151850193    0.0600
     51 H51       -10.8823   -3.4307   55.3663 H       1  ZINC000151850193    0.0800
     52 H52       -11.9245   -4.5589   54.3957 H       1  ZINC000151850193    0.1000
     53 H53       -13.2097   -0.2843   54.4688 H       1  ZINC000151850193    0.0400
     54 H54       -14.4809   -0.6529   55.6590 H       1  ZINC000151850193    0.0400
     55 H55       -13.1111    0.3889   56.1136 H       1  ZINC000151850193    0.0900
@<TRIPOS>BOND
     1     1     2    1
     2     1    26    1
     3     1    27    1
     4     1    28    1
     5     2     3    1
     6     2    29    1
     7     2    30    1
     8     3    22    1
     9     3     4    1
    10     3     6    1
    11     4     5    1
    12     4    31    1
    13     4    32    1
    14     5    33    1
    15     5    34    1
    16     5    35    1
    17     6     7    1
    18     6     8    1
    19     6    21    1
    20     8     9   am
    21     8    36    1
    22     9    10    2
    23     9    11    1
    24    11    12    1
    25    11    37    1
    26    11    38    1
    27    12    13    1
    28    12    39    1
    29    12    40    1
    30    13    14   am
    31    13    41    1
    32    14    15    2
    33    14    16    1
    34    16    17    1
    35    17    18    1
    36    17    19    1
    37    17    20    1
    38    18    42    1
    39    18    43    1
    40    18    44    1
    41    19    45    1
    42    19    46    1
    43    19    47    1
    44    20    48    1
    45    20    49    1
    46    20    50    1
    47    21    22    1
    48    21    51    1
    49    21    52    1
    50    22    23    1
    51    22    24    1
    52    24    25    1
    53    25    53    1
    54    25    54    1
    55    25    55    1
@<TRIPOS>SUBSTRUCTURE
     1 ZINC000151850193        1 TEMP              0 ****  ****    0 ROOT


##########                                Name:    ZINC000012087388
##########                DOCK_Rotatable_Bonds:                   5
##########                         Heavy_Atoms:                  29
##########                    Molecular_Weight:              418.52
##########                DOCK_Rotatable_Bonds:                   5
##########                       Formal_Charge:          -0.0499999
##########                     HBond_Acceptors:                  10
##########                        HBond_Donors:                   1
##########                         Heavy_Atoms:                  29
##########                          Grid_Score:          -31.088415
##########                     Grid_vdw_energy:          -29.320177
##########                      Grid_es_energy:           -1.768239
##########           Internal_energy_repulsive:           37.167599

@<TRIPOS>MOLECULE
ZINC000012087388
 55 58 1 0 0
SMALL
USER_CHARGES


@<TRIPOS>ATOM
      1 C1        -15.7779   -1.0479   54.2597 C.3     1  <0>        -0.6600
      2 S2        -15.6288   -2.7887   54.7474 S.o2    1  <0>         2.5100
      3 O3        -16.8429   -3.2510   55.3230 O.2     1  <0>        -0.9400
      4 O4        -14.9669   -3.5351   53.7355 O.2     1  <0>        -0.9300
      5 C5        -14.4893   -2.7727   56.0912 C.ar    1  <0>        -0.8400
      6 C6        -14.8831   -3.1725   57.3583 C.ar    1  <0>         0.3000
      7 N7        -14.0026   -3.1489   58.3452 N.ar    1  <0>        -0.5800
      8 C8        -12.7576   -2.7492   58.1326 C.ar    1  <0>         0.6000
      9 N9        -11.8623   -2.7371   59.1881 N.pl3   1  <0>        -0.5700
     10 C10       -10.4167   -2.8357   58.9448 C.3     1  <0>         0.1200
     11 C11        -9.7186   -1.6625   59.6396 C.3     1  <0>        -0.1400
     12 C12       -10.1072   -1.6469   61.1198 C.3     1  <0>        -0.1200
     13 C13       -11.6198   -1.4545   61.2498 C.3     1  <0>        -0.1400
     14 C14       -12.3392   -2.6193   60.5728 C.3     1  <0>         0.1200
     15 N15       -12.3489   -2.3612   56.9334 N.ar    1  <0>        -0.5700
     16 C16       -13.1776   -2.3654   55.9026 C.ar    1  <0>         0.3200
     17 C17       -12.7047   -1.9226   54.5421 C.3     1  <0>        -0.0700
     18 C18       -12.1468   -0.5004   54.6341 C.3     1  <0>        -0.1300
     19 C19       -11.6990   -0.0408   53.2431 C.3     1  <0>         0.0900
     20 N20       -10.7533   -1.0261   52.7012 N.am    1  <0>        -0.6100
     21 C21        -9.5398   -0.6417   52.2583 C.2     1  <0>         0.5900
     22 O22        -8.7659   -1.4671   51.8121 O.2     1  <0>        -0.5100
     23 C23        -9.1512    0.7765   52.3148 C.2     1  <0>        -0.0400
     24 C24        -9.8208    1.8447   51.7438 C.2     1  <0>        -0.1500
     25 C25        -9.0661    2.9730   52.0726 C.2     1  <0>         0.0000
     26 N26        -8.0394    2.5767   52.7805 N.2     1  <0>        -0.2700
     27 N27        -8.0603    1.3032   52.9461 N.pl3   1  <0>        -0.3900
     28 C28       -11.1555   -2.4384   52.6516 C.3     1  <0>         0.1100
     29 C29       -11.6094   -2.8711   54.0493 C.3     1  <0>        -0.1200
     30 H30       -16.1504   -0.4651   55.1021 H       1  <0>         0.1400
     31 H31       -14.8006   -0.6695   53.9599 H       1  <0>         0.1300
     32 H32       -16.4724   -0.9629   53.4237 H       1  <0>         0.1400
     33 H33       -15.8968   -3.4990   57.5379 H       1  <0>         0.1900
     34 H34       -10.0414   -3.7757   59.3493 H       1  <0>         0.0700
     35 H35       -10.2229   -2.7935   57.8730 H       1  <0>         0.1000
     36 H36        -8.6384   -1.7760   59.5483 H       1  <0>         0.0800
     37 H37       -10.0273   -0.7271   59.1726 H       1  <0>         0.0700
     38 H38        -9.8204   -2.5923   61.5804 H       1  <0>         0.0700
     39 H39        -9.5924   -0.8277   61.6218 H       1  <0>         0.0700
     40 H40       -11.8929   -1.4202   62.3045 H       1  <0>         0.0800
     41 H41       -11.9106   -0.5212   60.7676 H       1  <0>         0.0700
     42 H42       -13.4138   -2.4368   60.5764 H       1  <0>         0.1000
     43 H43       -12.1217   -3.5437   61.1080 H       1  <0>         0.0700
     44 H44       -13.5412   -1.9397   53.8435 H       1  <0>         0.1000
     45 H45       -12.9206    0.1705   55.0073 H       1  <0>         0.0800
     46 H46       -11.2945   -0.4872   55.3135 H       1  <0>         0.0900
     47 H47       -12.5657    0.0335   52.5862 H       1  <0>         0.0800
     48 H48       -11.2110    0.9309   53.3188 H       1  <0>         0.0900
     49 H49       -10.7331    1.8126   51.1666 H       1  <0>         0.1700
     50 H50        -9.2899    3.9917   51.7920 H       1  <0>         0.1900
     51 H51        -7.3988    0.7925   53.4384 H       1  <0>         0.4400
     52 H52       -11.9779   -2.5596   51.9465 H       1  <0>         0.0800
     53 H53       -10.3089   -3.0486   52.3371 H       1  <0>         0.1000
     54 H54       -10.7622   -2.8356   54.7341 H       1  <0>         0.0800
     55 H55       -12.0007   -3.8875   54.0063 H       1  <0>         0.0900
@<TRIPOS>BOND
     1     1     2    1
     2     1    30    1
     3     1    31    1
     4     1    32    1
     5     2     3    2
     6     2     4    2
     7     2     5    1
     8     5    16   ar
     9     5     6   ar
    10     6     7   ar
    11     6    33    1
    12     7     8   ar
    13     8     9    1
    14     8    15   ar
    15     9    14    1
    16     9    10    1
    17    10    11    1
    18    10    34    1
    19    10    35    1
    20    11    12    1
    21    11    36    1
    22    11    37    1
    23    12    13    1
    24    12    38    1
    25    12    39    1
    26    13    14    1
    27    13    40    1
    28    13    41    1
    29    14    42    1
    30    14    43    1
    31    15    16   ar
    32    16    17    1
    33    17    29    1
    34    17    18    1
    35    17    44    1
    36    18    19    1
    37    18    45    1
    38    18    46    1
    39    19    20    1
    40    19    47    1
    41    19    48    1
    42    20    21   am
    43    20    28    1
    44    21    22    2
    45    21    23    1
    46    23    27    1
    47    23    24    2
    48    24    25    1
    49    24    49    1
    50    25    26    2
    51    25    50    1
    52    26    27    1
    53    27    51    1
    54    28    29    1
    55    28    52    1
    56    28    53    1
    57    29    54    1
    58    29    55    1
@<TRIPOS>SUBSTRUCTURE
     1 <0>         1 TEMP              0 ****  ****    0 ROOT


##########                                Name:    ZINC000482139334
##########                DOCK_Rotatable_Bonds:                   4
##########                         Heavy_Atoms:                  26
##########                    Molecular_Weight:             348.376
##########                DOCK_Rotatable_Bonds:                   4
##########                       Formal_Charge:           0.0300002
##########                     HBond_Acceptors:                   5
##########                        HBond_Donors:                   1
##########                         Heavy_Atoms:                  26
##########                          Grid_Score:          -31.052904
##########                     Grid_vdw_energy:          -29.997894
##########                      Grid_es_energy:           -1.055010
##########           Internal_energy_repulsive:            8.461347

@<TRIPOS>MOLECULE
ZINC000482139334
 43 47 1 0 0
SMALL
USER_CHARGES


@<TRIPOS>ATOM
      1 O1        -12.0906   -4.8290   57.6286 O.2     1  ZINC000482139334   -0.4800
      2 C2        -11.7665   -4.0280   56.7778 C.2     1  ZINC000482139334    0.5500
      3 N3        -10.9605   -2.9957   57.0961 N.am    1  ZINC000482139334   -0.6100
      4 C4        -10.5067   -2.8464   58.3974 C.2     1  ZINC000482139334    0.4300
      5 N5        -10.5688   -1.7462   59.1027 N.2     1  ZINC000482139334   -0.4800
      6 C6        -10.0279   -1.9875   60.3256 C.2     1  ZINC000482139334    0.0400
      7 C7         -9.8973   -1.0127   61.4365 C.ar    1  ZINC000482139334   -0.0500
      8 C8         -9.1845   -1.3519   62.5842 C.ar    1  ZINC000482139334   -0.0800
      9 C9         -9.0656   -0.4410   63.6147 C.ar    1  ZINC000482139334   -0.1300
     10 C10        -9.6527    0.8068   63.5107 C.ar    1  ZINC000482139334   -0.0800
     11 C11       -10.3626    1.1509   62.3745 C.ar    1  ZINC000482139334   -0.1600
     12 C12       -10.4834    0.2498   61.3334 C.ar    1  ZINC000482139334    0.1300
     13 F13       -11.1767    0.5861   60.2237 F       1  ZINC000482139334   -0.1200
     14 C14        -9.6305   -3.2818   60.3435 C.2     1  ZINC000482139334   -0.0600
     15 O15        -9.9380   -3.8085   59.1399 O.3     1  ZINC000482139334   -0.1800
     16 C16       -12.2598   -4.1902   55.3631 C.3     1  ZINC000482139334   -0.1800
     17 H17       -11.5075   -4.0608   54.5850 H       1  ZINC000482139334    0.1400
     18 C18       -13.3661   -5.2190   55.1133 C.3     1  ZINC000482139334   -0.1200
     19 C19       -13.6783   -3.7270   55.0547 C.3     1  ZINC000482139334   -0.0500
     20 C20       -14.5481   -3.0541   56.1296 C.3     1  ZINC000482139334   -0.0700
     21 C21       -15.7499   -2.5427   55.3046 C.3     1  ZINC000482139334   -0.0900
     22 C22       -15.2173   -2.3565   53.8993 C.ar    1  ZINC000482139334   -0.0800
     23 C23       -15.7356   -1.6451   52.8309 C.ar    1  ZINC000482139334   -0.1100
     24 C24       -15.0663   -1.6173   51.6228 C.ar    1  ZINC000482139334   -0.1100
     25 C25       -13.8746   -2.3023   51.4791 C.ar    1  ZINC000482139334   -0.1200
     26 C26       -13.3551   -3.0127   52.5436 C.ar    1  ZINC000482139334   -0.1000
     27 C27       -14.0233   -3.0421   53.7560 C.ar    1  ZINC000482139334   -0.0700
     28 H28       -10.6980   -2.3572   56.4148 H       1  ZINC000482139334    0.4400
     29 H29        -8.7257   -2.3261   62.6678 H       1  ZINC000482139334    0.1300
     30 H30        -8.5129   -0.7037   64.5047 H       1  ZINC000482139334    0.1400
     31 H31        -9.5569    1.5155   64.3201 H       1  ZINC000482139334    0.1400
     32 H32       -10.8196    2.1265   62.2989 H       1  ZINC000482139334    0.1400
     33 H33        -9.1592   -3.7968   61.1676 H       1  ZINC000482139334    0.2200
     34 H34       -13.3419   -5.7656   54.1706 H       1  ZINC000482139334    0.1200
     35 H35       -13.7370   -5.7782   55.9723 H       1  ZINC000482139334    0.1100
     36 H36       -14.8709   -3.7786   56.8772 H       1  ZINC000482139334    0.0800
     37 H37       -14.0164   -2.2245   56.5957 H       1  ZINC000482139334    0.0900
     38 H38       -16.5530   -3.2796   55.3099 H       1  ZINC000482139334    0.0800
     39 H39       -16.1051   -1.5924   55.7032 H       1  ZINC000482139334    0.0800
     40 H40       -16.6671   -1.1100   52.9423 H       1  ZINC000482139334    0.1200
     41 H41       -15.4741   -1.0613   50.7916 H       1  ZINC000482139334    0.1300
     42 H42       -13.3501   -2.2823   50.5352 H       1  ZINC000482139334    0.1300
     43 H43       -12.4239   -3.5479   52.4298 H       1  ZINC000482139334    0.1200
@<TRIPOS>BOND
     1     1     2    2
     2     2     3   am
     3     2    16    1
     4     3     4    1
     5     3    28    1
     6     4    15    1
     7     4     5    2
     8     5     6    1
     9     6     7    1
    10     6    14    2
    11     7    12   ar
    12     7     8   ar
    13     8     9   ar
    14     8    29    1
    15     9    10   ar
    16     9    30    1
    17    10    11   ar
    18    10    31    1
    19    11    12   ar
    20    11    32    1
    21    12    13    1
    22    14    15    1
    23    14    33    1
    24    16    17    1
    25    16    19    1
    26    16    18    1
    27    18    19    1
    28    18    34    1
    29    18    35    1
    30    19    27    1
    31    19    20    1
    32    20    21    1
    33    20    36    1
    34    20    37    1
    35    21    22    1
    36    21    38    1
    37    21    39    1
    38    22    27   ar
    39    22    23   ar
    40    23    24   ar
    41    23    40    1
    42    24    25   ar
    43    24    41    1
    44    25    26   ar
    45    25    42    1
    46    26    27   ar
    47    26    43    1
@<TRIPOS>SUBSTRUCTURE
     1 ZINC000482139334        1 TEMP              0 ****  ****    0 ROOT


##########                                Name:    ZINC000437443367
##########                DOCK_Rotatable_Bonds:                   8
##########                         Heavy_Atoms:                  24
##########                    Molecular_Weight:             334.434
##########                DOCK_Rotatable_Bonds:                   8
##########                       Formal_Charge:          -0.0500003
##########                     HBond_Acceptors:                   5
##########                        HBond_Donors:                   1
##########                         Heavy_Atoms:                  24
##########                          Grid_Score:          -31.044722
##########                     Grid_vdw_energy:          -30.182846
##########                      Grid_es_energy:           -0.861875
##########           Internal_energy_repulsive:           28.629023

@<TRIPOS>MOLECULE
ZINC000437443367
 51 52 1 0 0
SMALL
USER_CHARGES


@<TRIPOS>ATOM
      1 C1        -11.2618    2.1555   62.4774 C.3     1  ZINC000437443367   -0.1200
      2 C2        -10.4907    0.8678   62.6124 C.ar    1  ZINC000437443367   -0.1000
      3 C3        -10.4556   -0.0285   61.5629 C.ar    1  ZINC000437443367   -0.1200
      4 C4         -9.7445   -1.2156   61.6879 C.ar    1  ZINC000437443367    0.1400
      5 N5         -9.7072   -2.1245   60.6263 N.am    1  ZINC000437443367   -0.6400
      6 C6        -10.8394   -2.7314   60.2187 C.2     1  ZINC000437443367    0.5000
      7 O7        -11.8916   -2.4889   60.7731 O.2     1  ZINC000437443367   -0.4800
      8 C8        -10.7995   -3.7024   59.0846 C.2     1  ZINC000437443367    0.5100
      9 O9        -10.1471   -4.7212   59.1807 O.2     1  ZINC000437443367   -0.5200
     10 N10       -11.4881   -3.4472   57.9544 N.am    1  ZINC000437443367   -0.5700
     11 C11       -12.2757   -2.2174   57.8384 C.3     1  ZINC000437443367    0.0900
     12 C12       -11.3357   -1.0268   57.6383 C.3     1  ZINC000437443367   -0.1200
     13 C13       -12.1468    0.1962   57.2056 C.3     1  ZINC000437443367   -0.0900
     14 C14       -11.4311    1.4698   57.6602 C.3     1  ZINC000437443367   -0.1400
     15 C15       -12.2836    0.2043   55.6817 C.3     1  ZINC000437443367   -0.1500
     16 C16       -11.4488   -4.3996   56.8420 C.3     1  ZINC000437443367    0.1300
     17 C17       -12.7319   -5.2562   56.8343 C.3     1  ZINC000437443367   -0.1300
     18 C18       -13.6639   -4.5351   55.8291 C.3     1  ZINC000437443367   -0.1300
     19 C19       -12.6813   -4.0678   54.7267 C.3     1  ZINC000437443367   -0.1200
     20 C20       -11.4167   -3.6440   55.5019 C.3     1  ZINC000437443367   -0.1400
     21 C21        -9.0704   -1.4977   62.8691 C.ar    1  ZINC000437443367   -0.1100
     22 C22        -9.1083   -0.5980   63.9164 C.ar    1  ZINC000437443367   -0.1300
     23 C23        -9.8130    0.5870   63.7874 C.ar    1  ZINC000437443367    0.0800
     24 F24        -9.8487    1.4656   64.8130 F       1  ZINC000437443367   -0.1400
     25 H25       -10.6095    2.9289   62.0719 H       1  ZINC000437443367    0.0800
     26 H26       -12.1068    2.0042   61.8058 H       1  ZINC000437443367    0.0700
     27 H27       -11.6268    2.4649   63.4567 H       1  ZINC000437443367    0.0700
     28 H28       -10.9808    0.1927   60.6455 H       1  ZINC000437443367    0.1400
     29 H29        -8.8664   -2.3182   60.1831 H       1  ZINC000437443367    0.4200
     30 H30       -12.9489   -2.2963   56.9849 H       1  ZINC000437443367    0.0900
     31 H31       -12.8579   -2.0717   58.7483 H       1  ZINC000437443367    0.1000
     32 H32       -10.8210   -0.8089   58.5740 H       1  ZINC000437443367    0.0700
     33 H33       -10.6030   -1.2679   56.8682 H       1  ZINC000437443367    0.0600
     34 H34       -13.1371    0.1544   57.6591 H       1  ZINC000437443367    0.0600
     35 H35       -10.4408    1.5115   57.2067 H       1  ZINC000437443367    0.0600
     36 H36       -12.0090    2.3410   57.3519 H       1  ZINC000437443367    0.0400
     37 H37       -11.3337    1.4640   58.7458 H       1  ZINC000437443367    0.0600
     38 H38       -12.7936   -0.7030   55.3579 H       1  ZINC000437443367    0.0500
     39 H39       -12.8615    1.0756   55.3734 H       1  ZINC000437443367    0.0500
     40 H40       -11.2934    0.2461   55.2283 H       1  ZINC000437443367    0.0500
     41 H41       -10.5716   -5.0407   56.9304 H       1  ZINC000437443367    0.1000
     42 H42       -12.5130   -6.2680   56.4933 H       1  ZINC000437443367    0.0800
     43 H43       -13.1832   -5.2761   57.8262 H       1  ZINC000437443367    0.0700
     44 H44       -14.4012   -5.2267   55.4214 H       1  ZINC000437443367    0.0700
     45 H45       -14.1520   -3.6813   56.2989 H       1  ZINC000437443367    0.0700
     46 H46       -12.4543   -4.8877   54.0454 H       1  ZINC000437443367    0.0700
     47 H47       -13.0958   -3.2203   54.1805 H       1  ZINC000437443367    0.0700
     48 H48       -11.4303   -2.5686   55.6792 H       1  ZINC000437443367    0.0800
     49 H49       -10.5243   -3.9189   54.9396 H       1  ZINC000437443367    0.0700
     50 H50        -8.5173   -2.4198   62.9686 H       1  ZINC000437443367    0.1600
     51 H51        -8.5842   -0.8169   64.8350 H       1  ZINC000437443367    0.1400
@<TRIPOS>BOND
     1     1     2    1
     2     1    25    1
     3     1    26    1
     4     1    27    1
     5     2    23   ar
     6     2     3   ar
     7     3     4   ar
     8     3    28    1
     9     4     5    1
    10     4    21   ar
    11     5     6   am
    12     5    29    1
    13     6     7    2
    14     6     8    1
    15     8     9    2
    16     8    10   am
    17    10    11    1
    18    10    16    1
    19    11    12    1
    20    11    30    1
    21    11    31    1
    22    12    13    1
    23    12    32    1
    24    12    33    1
    25    13    14    1
    26    13    15    1
    27    13    34    1
    28    14    35    1
    29    14    36    1
    30    14    37    1
    31    15    38    1
    32    15    39    1
    33    15    40    1
    34    16    20    1
    35    16    17    1
    36    16    41    1
    37    17    18    1
    38    17    42    1
    39    17    43    1
    40    18    19    1
    41    18    44    1
    42    18    45    1
    43    19    20    1
    44    19    46    1
    45    19    47    1
    46    20    48    1
    47    20    49    1
    48    21    22   ar
    49    21    50    1
    50    22    23   ar
    51    22    51    1
    52    23    24    1
@<TRIPOS>SUBSTRUCTURE
     1 ZINC000437443367        1 TEMP              0 ****  ****    0 ROOT


##########                                Name:    ZINC000549381790
##########                DOCK_Rotatable_Bonds:                   7
##########                         Heavy_Atoms:                  23
##########                    Molecular_Weight:             337.846
##########                DOCK_Rotatable_Bonds:                   7
##########                       Formal_Charge:           0.0300006
##########                     HBond_Acceptors:                   5
##########                        HBond_Donors:                   0
##########                         Heavy_Atoms:                  23
##########                          Grid_Score:          -31.018003
##########                     Grid_vdw_energy:          -30.985521
##########                      Grid_es_energy:           -0.032481
##########           Internal_energy_repulsive:           90.382141

@<TRIPOS>MOLECULE
ZINC000549381790
 47 49 1 0 0
SMALL
USER_CHARGES


@<TRIPOS>ATOM
      1 C1        -14.0974   -0.3360   53.9454 C.3     1  ZINC000549381790   -0.1400
      2 C2        -13.7222   -1.5348   53.0721 C.3     1  ZINC000549381790    0.1500
      3 H3        -14.5620   -1.7944   52.4275 H       1  ZINC000549381790    0.0700
      4 C4        -12.5044   -1.1827   52.2120 C.3     1  ZINC000549381790   -0.1300
      5 C5        -12.0494   -2.4266   51.4452 C.3     1  ZINC000549381790   -0.1200
      6 C6        -11.6409   -3.5181   52.4370 C.3     1  ZINC000549381790   -0.1400
      7 C7        -12.8488   -3.8968   53.2997 C.3     1  ZINC000549381790    0.1000
      8 N8        -13.3851   -2.6809   53.9273 N.am    1  ZINC000549381790   -0.6100
      9 C9        -13.5595   -2.6169   55.2622 C.2     1  ZINC000549381790    0.5200
     10 O10       -14.0028   -1.6078   55.7682 O.2     1  ZINC000549381790   -0.5000
     11 C11       -13.2034   -3.7993   56.1261 C.3     1  ZINC000549381790    0.0400
     12 O12       -11.7863   -3.9837   56.1205 O.3     1  ZINC000549381790   -0.2800
     13 C13       -11.0927   -3.4693   57.1710 C.ar    1  ZINC000549381790    0.1100
     14 C14       -10.7327   -4.2872   58.2313 C.ar    1  ZINC000549381790   -0.1700
     15 C15       -10.0275   -3.7651   59.2987 C.ar    1  ZINC000549381790   -0.1600
     16 C16        -9.6799   -2.4230   59.3103 C.ar    1  ZINC000549381790    0.1100
     17 O17        -8.9858   -1.9093   60.3611 O.3     1  ZINC000549381790   -0.3000
     18 C18        -9.5547   -2.0813   61.6607 C.3     1  ZINC000549381790    0.0900
     19 C19       -10.9268   -1.4063   61.7102 C.3     1  ZINC000549381790   -0.1600
     20 C20       -11.2148   -0.4773   62.8912 C.3     1  ZINC000549381790   -0.1700
     21 C21       -10.9772    0.1081   61.4978 C.3     1  ZINC000549381790   -0.1700
     22 C22       -10.0402   -1.6038   58.2491 C.ar    1  ZINC000549381790   -0.0300
     23 Cl23       -9.6048    0.0767   58.2629 Cl      1  ZINC000549381790   -0.0400
     24 C24       -10.7404   -2.1276   57.1790 C.ar    1  ZINC000549381790   -0.1000
     25 H25       -13.2961   -0.1407   54.6581 H       1  ZINC000549381790    0.0600
     26 H26       -14.2444    0.5409   53.3149 H       1  ZINC000549381790    0.0500
     27 H27       -15.0188   -0.5539   54.4853 H       1  ZINC000549381790    0.0800
     28 H28       -12.7731   -0.3976   51.5052 H       1  ZINC000549381790    0.0800
     29 H29       -11.6948   -0.8341   52.8531 H       1  ZINC000549381790    0.0700
     30 H30       -12.8677   -2.7890   50.8230 H       1  ZINC000549381790    0.0700
     31 H31       -11.1982   -2.1727   50.8136 H       1  ZINC000549381790    0.0700
     32 H32       -11.2949   -4.3954   51.8904 H       1  ZINC000549381790    0.0800
     33 H33       -10.8394   -3.1476   53.0761 H       1  ZINC000549381790    0.0700
     34 H34       -13.6167   -4.3514   52.6737 H       1  ZINC000549381790    0.0800
     35 H35       -12.5399   -4.6011   54.0721 H       1  ZINC000549381790    0.0800
     36 H36       -13.5423   -3.6190   57.1463 H       1  ZINC000549381790    0.0900
     37 H37       -13.6878   -4.6940   55.7352 H       1  ZINC000549381790    0.0900
     38 H38       -11.0037   -5.3326   58.2230 H       1  ZINC000549381790    0.1400
     39 H39        -9.7473   -4.4025   60.1244 H       1  ZINC000549381790    0.1400
     40 H40        -9.6652   -3.1450   61.8711 H       1  ZINC000549381790    0.0700
     41 H41        -8.9004   -1.6294   62.4063 H       1  ZINC000549381790    0.0700
     42 H42       -11.7557   -1.9971   61.3203 H       1  ZINC000549381790    0.1200
     43 H43       -12.2335   -0.4569   63.2787 H       1  ZINC000549381790    0.1000
     44 H44       -10.4268   -0.3471   63.6330 H       1  ZINC000549381790    0.1000
     45 H45       -10.0329    0.6235   61.3227 H       1  ZINC000549381790    0.1000
     46 H46       -11.8395    0.5136   60.9685 H       1  ZINC000549381790    0.1000
     47 H47       -11.0208   -1.4906   56.3532 H       1  ZINC000549381790    0.1500
@<TRIPOS>BOND
     1     1     2    1
     2     1    25    1
     3     1    26    1
     4     1    27    1
     5     2     3    1
     6     2     8    1
     7     2     4    1
     8     4     5    1
     9     4    28    1
    10     4    29    1
    11     5     6    1
    12     5    30    1
    13     5    31    1
    14     6     7    1
    15     6    32    1
    16     6    33    1
    17     7     8    1
    18     7    34    1
    19     7    35    1
    20     8     9   am
    21     9    10    2
    22     9    11    1
    23    11    12    1
    24    11    36    1
    25    11    37    1
    26    12    13    1
    27    13    24   ar
    28    13    14   ar
    29    14    15   ar
    30    14    38    1
    31    15    16   ar
    32    15    39    1
    33    16    17    1
    34    16    22   ar
    35    17    18    1
    36    18    19    1
    37    18    40    1
    38    18    41    1
    39    19    21    1
    40    19    20    1
    41    19    42    1
    42    20    21    1
    43    20    43    1
    44    20    44    1
    45    21    45    1
    46    21    46    1
    47    22    23    1
    48    22    24   ar
    49    24    47    1
@<TRIPOS>SUBSTRUCTURE
     1 ZINC000549381790        1 TEMP              0 ****  ****    0 ROOT


##########                                Name:    ZINC000461336108
##########                DOCK_Rotatable_Bonds:                   5
##########                         Heavy_Atoms:                  26
##########                    Molecular_Weight:             373.522
##########                DOCK_Rotatable_Bonds:                   5
##########                       Formal_Charge:        -3.42727e-07
##########                     HBond_Acceptors:                   7
##########                        HBond_Donors:                   0
##########                         Heavy_Atoms:                  26
##########                          Grid_Score:          -31.017513
##########                     Grid_vdw_energy:          -30.957926
##########                      Grid_es_energy:           -0.059588
##########           Internal_energy_repulsive:           11.291169

@<TRIPOS>MOLECULE
ZINC000461336108
 53 56 1 0 0
SMALL
USER_CHARGES


@<TRIPOS>ATOM
      1 C1        -12.3190    0.4691   59.6450 C.3     1  ZINC000461336108   -0.1300
      2 C2        -10.8839    0.0209   59.9291 C.3     1  ZINC000461336108    0.0700
      3 H3        -10.1931    0.6253   59.3413 H       1  ZINC000461336108    0.0800
      4 C4        -10.5852    0.2014   61.3906 C.2     1  ZINC000461336108    0.5300
      5 O5        -10.9590    1.2164   61.9391 O.2     1  ZINC000461336108   -0.5300
      6 N6         -9.9249   -0.7105   62.1120 N.am    1  ZINC000461336108   -0.6100
      7 C7         -9.6514   -0.4232   63.5222 C.3     1  ZINC000461336108    0.0700
      8 C8         -9.4646   -1.9801   61.5568 C.3     1  ZINC000461336108    0.1200
      9 C9         -9.4353   -1.9045   60.0292 C.3     1  ZINC000461336108    0.0400
     10 N10       -10.7321   -1.3925   59.5586 N.3     1  ZINC000461336108   -0.4300
     11 C11       -10.8655   -1.5612   58.1897 C.2     1  ZINC000461336108    0.3300
     12 N12       -10.4021   -0.7634   57.2566 N.2     1  ZINC000461336108   -0.2500
     13 N13       -10.7075   -1.2244   56.0965 N.2     1  ZINC000461336108   -0.2800
     14 C14       -11.3784   -2.3346   56.2194 C.2     1  ZINC000461336108    0.2000
     15 C15       -11.9166   -3.1821   55.0955 C.3     1  ZINC000461336108   -0.0300
     16 C16       -11.8507   -2.3941   53.7858 C.3     1  ZINC000461336108   -0.0900
     17 C17       -12.4061   -3.2419   52.6145 C.3     1  ZINC000461336108   -0.1200
     18 C18       -12.8283   -2.1657   51.5837 C.3     1  ZINC000461336108   -0.1200
     19 C19       -13.4092   -1.0248   52.4443 C.3     1  ZINC000461336108   -0.1300
     20 C20       -12.7876   -1.1700   53.8443 C.3     1  ZINC000461336108   -0.1200
     21 N21       -11.4985   -2.5913   57.5571 N.pl3   1  ZINC000461336108   -0.4900
     22 C22       -12.1741   -3.7312   58.1818 C.3     1  ZINC000461336108    0.1700
     23 C23       -13.5997   -3.3586   58.4981 C.2     1  ZINC000461336108   -0.2400
     24 C24       -14.0352   -2.9172   59.6791 C.2     1  ZINC000461336108   -0.0900
     25 C25       -15.3897   -2.6369   59.7337 C.2     1  ZINC000461336108   -0.1400
     26 C26       -16.0540   -2.8505   58.5969 C.2     1  ZINC000461336108   -0.2000
     27 S27       -14.9422   -3.4318   57.3642 S.3     1  ZINC000461336108    0.1200
     28 H28       -13.0111   -0.1344   60.2322 H       1  ZINC000461336108    0.0800
     29 H29       -12.4322    1.5188   59.9159 H       1  ZINC000461336108    0.0800
     30 H30       -12.5359    0.3422   58.5843 H       1  ZINC000461336108    0.0700
     31 H31       -10.0570    0.5555   63.7789 H       1  ZINC000461336108    0.0900
     32 H32       -10.1192   -1.1852   64.1456 H       1  ZINC000461336108    0.0700
     33 H33        -8.5746   -0.4260   63.6914 H       1  ZINC000461336108    0.0600
     34 H34        -8.4622   -2.1947   61.9276 H       1  ZINC000461336108    0.0900
     35 H35       -10.1411   -2.7767   61.8666 H       1  ZINC000461336108    0.0900
     36 H36        -8.6383   -1.2320   59.7116 H       1  ZINC000461336108    0.0500
     37 H37        -9.2632   -2.8989   59.6172 H       1  ZINC000461336108    0.1100
     38 H38       -11.3177   -4.0883   55.0049 H       1  ZINC000461336108    0.0800
     39 H39       -12.9518   -3.4504   55.3064 H       1  ZINC000461336108    0.1000
     40 H40       -10.8268   -2.0813   53.5809 H       1  ZINC000461336108    0.0900
     41 H41       -11.6304   -3.8876   52.2031 H       1  ZINC000461336108    0.0600
     42 H42       -13.2674   -3.8276   52.9361 H       1  ZINC000461336108    0.0600
     43 H43       -11.9627   -1.8162   51.0209 H       1  ZINC000461336108    0.0700
     44 H44       -13.5887   -2.5604   50.9098 H       1  ZINC000461336108    0.0700
     45 H45       -13.1410   -0.0596   52.0149 H       1  ZINC000461336108    0.0700
     46 H46       -14.4935   -1.1183   52.5056 H       1  ZINC000461336108    0.0600
     47 H47       -13.5702   -1.3340   54.5852 H       1  ZINC000461336108    0.0700
     48 H48       -12.2177   -0.2752   54.0946 H       1  ZINC000461336108    0.0700
     49 H49       -12.1637   -4.5795   57.4972 H       1  ZINC000461336108    0.1200
     50 H50       -11.6563   -4.0007   59.1023 H       1  ZINC000461336108    0.1000
     51 H51       -13.3807   -2.7887   60.5285 H       1  ZINC000461336108    0.1400
     52 H52       -15.8719   -2.2731   60.6289 H       1  ZINC000461336108    0.1500
     53 H53       -17.1122   -2.6880   58.4543 H       1  ZINC000461336108    0.1700
@<TRIPOS>BOND
     1     1     2    1
     2     1    28    1
     3     1    29    1
     4     1    30    1
     5     2     3    1
     6     2    10    1
     7     2     4    1
     8     4     5    2
     9     4     6   am
    10     6     7    1
    11     6     8    1
    12     7    31    1
    13     7    32    1
    14     7    33    1
    15     8     9    1
    16     8    34    1
    17     8    35    1
    18     9    10    1
    19     9    36    1
    20     9    37    1
    21    10    11    1
    22    11    21    1
    23    11    12    2
    24    12    13    1
    25    13    14    2
    26    14    15    1
    27    14    21    1
    28    15    16    1
    29    15    38    1
    30    15    39    1
    31    16    20    1
    32    16    17    1
    33    16    40    1
    34    17    18    1
    35    17    41    1
    36    17    42    1
    37    18    19    1
    38    18    43    1
    39    18    44    1
    40    19    20    1
    41    19    45    1
    42    19    46    1
    43    20    47    1
    44    20    48    1
    45    21    22    1
    46    22    23    1
    47    22    49    1
    48    22    50    1
    49    23    27    1
    50    23    24    2
    51    24    25    1
    52    24    51    1
    53    25    26    2
    54    25    52    1
    55    26    27    1
    56    26    53    1
@<TRIPOS>SUBSTRUCTURE
     1 ZINC000461336108        1 TEMP              0 ****  ****    0 ROOT


##########                                Name:    ZINC000373864439
##########                DOCK_Rotatable_Bonds:                   7
##########                         Heavy_Atoms:                  23
##########                    Molecular_Weight:              344.45
##########                DOCK_Rotatable_Bonds:                   7
##########                       Formal_Charge:          -0.0300001
##########                     HBond_Acceptors:                   7
##########                        HBond_Donors:                   1
##########                         Heavy_Atoms:                  23
##########                          Grid_Score:          -31.007833
##########                     Grid_vdw_energy:          -29.806292
##########                      Grid_es_energy:           -1.201542
##########           Internal_energy_repulsive:           18.805927

@<TRIPOS>MOLECULE
ZINC000373864439
 48 49 1 0 0
SMALL
USER_CHARGES


@<TRIPOS>ATOM
      1 C1        -10.3851   -0.9311   61.3905 C.3     1  ZINC000373864439   -0.1500
      2 C2         -9.8658   -2.3277   61.0430 C.3     1  ZINC000373864439   -0.6300
      3 S3         -9.7393   -2.4949   59.2412 S.o2    1  ZINC000373864439    2.6100
      4 O4         -9.0494   -1.3842   58.6846 O.2     1  ZINC000373864439   -0.9500
      5 O5         -9.3906   -3.8261   58.8871 O.2     1  ZINC000373864439   -0.9600
      6 N6        -11.2948   -2.3224   58.6999 N.am    1  ZINC000373864439   -1.1200
      7 C7        -11.5844   -2.4009   57.2660 C.3     1  ZINC000373864439    0.1100
      8 C8        -11.8227   -0.9932   56.7161 C.3     1  ZINC000373864439    0.0500
      9 N9        -10.8672   -0.7221   55.6336 N.3     1  ZINC000373864439   -0.5300
     10 C10       -10.2724    0.6127   55.7788 C.3     1  ZINC000373864439    0.0400
     11 C11        -9.1806    0.8036   54.7236 C.3     1  ZINC000373864439   -0.1300
     12 C12        -9.7923    0.6457   53.3289 C.3     1  ZINC000373864439    0.1800
     13 F13       -10.7573    1.6384   53.1266 F       1  ZINC000373864439   -0.2100
     14 C14        -8.7110    0.7748   52.2871 C.ar    1  ZINC000373864439   -0.1500
     15 C15        -8.2686   -0.3435   51.6079 C.ar    1  ZINC000373864439   -0.0700
     16 C16        -7.2761   -0.2258   50.6521 C.ar    1  ZINC000373864439   -0.1600
     17 C17        -6.7246    1.0109   50.3736 C.ar    1  ZINC000373864439   -0.0700
     18 C18        -7.1641    2.1328   51.0499 C.ar    1  ZINC000373864439   -0.2100
     19 C19        -8.1632    2.0181   52.0053 C.ar    1  ZINC000373864439    0.1400
     20 O20        -8.5972    3.1200   52.6719 O.3     1  ZINC000373864439   -0.3100
     21 C21        -9.1132    4.1940   51.8832 C.3     1  ZINC000373864439    0.0200
     22 C22       -10.4471   -0.7341   53.2204 C.3     1  ZINC000373864439   -0.1300
     23 C23       -11.5023   -0.8803   54.3191 C.3     1  ZINC000373864439    0.0600
     24 H24       -11.3682   -0.7871   60.9423 H       1  ZINC000373864439    0.0700
     25 H25       -10.4610   -0.8307   62.4731 H       1  ZINC000373864439    0.0800
     26 H26        -9.6959   -0.1805   61.0034 H       1  ZINC000373864439    0.0700
     27 H27        -8.8827   -2.4717   61.4911 H       1  ZINC000373864439    0.1300
     28 H28       -10.5550   -3.0783   61.4300 H       1  ZINC000373864439    0.1300
     29 H29       -12.0143   -2.1695   59.3324 H       1  ZINC000373864439    0.4200
     30 H30       -10.7389   -2.8548   56.7489 H       1  ZINC000373864439    0.0700
     31 H31       -12.4756   -3.0083   57.1080 H       1  ZINC000373864439    0.0900
     32 H32       -12.8394   -0.9213   56.3297 H       1  ZINC000373864439    0.0900
     33 H33       -11.6847   -0.2633   57.5138 H       1  ZINC000373864439    0.0400
     34 H34       -11.0440    1.3707   55.6442 H       1  ZINC000373864439    0.0400
     35 H35        -9.8373    0.7102   56.7734 H       1  ZINC000373864439    0.0900
     36 H36        -8.7501    1.8001   54.8216 H       1  ZINC000373864439    0.0800
     37 H37        -8.4017    0.0544   54.8663 H       1  ZINC000373864439    0.1000
     38 H38        -8.6977   -1.3108   51.8237 H       1  ZINC000373864439    0.1300
     39 H39        -6.9310   -1.1015   50.1227 H       1  ZINC000373864439    0.1300
     40 H40        -5.9494    1.1003   49.6270 H       1  ZINC000373864439    0.1300
     41 H41        -6.7327    3.0986   50.8322 H       1  ZINC000373864439    0.1300
     42 H42        -9.4236    5.0088   52.5374 H       1  ZINC000373864439    0.1000
     43 H43        -8.3393    4.5494   51.2027 H       1  ZINC000373864439    0.0600
     44 H44        -9.9699    3.8434   51.3078 H       1  ZINC000373864439    0.0600
     45 H45       -10.9216   -0.8360   52.2443 H       1  ZINC000373864439    0.0800
     46 H46        -9.6882   -1.5073   53.3394 H       1  ZINC000373864439    0.1000
     47 H47       -11.9605   -1.8672   54.2536 H       1  ZINC000373864439    0.0800
     48 H48       -12.2682   -0.1154   54.1913 H       1  ZINC000373864439    0.0400
@<TRIPOS>BOND
     1     1     2    1
     2     1    24    1
     3     1    25    1
     4     1    26    1
     5     2     3    1
     6     2    27    1
     7     2    28    1
     8     3     4    2
     9     3     5    2
    10     3     6   am
    11     6     7    1
    12     6    29    1
    13     7     8    1
    14     7    30    1
    15     7    31    1
    16     8     9    1
    17     8    32    1
    18     8    33    1
    19     9    23    1
    20     9    10    1
    21    10    11    1
    22    10    34    1
    23    10    35    1
    24    11    12    1
    25    11    36    1
    26    11    37    1
    27    12    13    1
    28    12    14    1
    29    12    22    1
    30    14    19   ar
    31    14    15   ar
    32    15    16   ar
    33    15    38    1
    34    16    17   ar
    35    16    39    1
    36    17    18   ar
    37    17    40    1
    38    18    19   ar
    39    18    41    1
    40    19    20    1
    41    20    21    1
    42    21    42    1
    43    21    43    1
    44    21    44    1
    45    22    23    1
    46    22    45    1
    47    22    46    1
    48    23    47    1
    49    23    48    1
@<TRIPOS>SUBSTRUCTURE
     1 ZINC000373864439        1 TEMP              0 ****  ****    0 ROOT


##########                                Name:    ZINC000840649129
##########                DOCK_Rotatable_Bonds:                   8
##########                         Heavy_Atoms:                  26
##########                    Molecular_Weight:             376.839
##########                DOCK_Rotatable_Bonds:                   8
##########                       Formal_Charge:          -0.0199998
##########                     HBond_Acceptors:                   7
##########                        HBond_Donors:                   3
##########                         Heavy_Atoms:                  26
##########                          Grid_Score:          -31.001043
##########                     Grid_vdw_energy:          -29.628557
##########                      Grid_es_energy:           -1.372486
##########           Internal_energy_repulsive:           17.812103

@<TRIPOS>MOLECULE
ZINC000840649129
 47 48 1 0 0
SMALL
USER_CHARGES


@<TRIPOS>ATOM
      1 C1        -14.8581   -2.9805   60.3786 C.3     1  ZINC000840649129    0.0200
      2 O2        -13.8206   -2.2614   59.7089 O.3     1  ZINC000840649129   -0.2900
      3 C3        -12.6707   -2.0529   60.3995 C.ar    1  ZINC000840649129    0.1400
      4 C4        -12.6468   -1.1523   61.4533 C.ar    1  ZINC000840649129   -0.1700
      5 C5        -11.4784   -0.9387   62.1568 C.ar    1  ZINC000840649129   -0.1200
      6 C6        -10.3174   -1.6243   61.8153 C.ar    1  ZINC000840649129    0.1700
      7 N7         -9.1376   -1.4011   62.5345 N.pl3   1  ZINC000840649129   -0.8800
      8 C8        -10.3262   -2.5272   60.7662 C.ar    1  ZINC000840649129   -0.1000
      9 C9        -11.5062   -2.7517   60.0524 C.ar    1  ZINC000840649129   -0.1200
     10 C10       -11.5242   -3.7120   58.9342 C.2     1  ZINC000840649129    0.5100
     11 O11       -10.6074   -4.4969   58.7926 O.2     1  ZINC000840649129   -0.4800
     12 O12       -12.5572   -3.7193   58.0690 O.3     1  ZINC000840649129   -0.3200
     13 C13       -12.2811   -4.1697   56.7164 C.3     1  ZINC000840649129    0.0800
     14 H14       -11.6562   -5.0621   56.7511 H       1  ZINC000840649129    0.1200
     15 C15       -11.5615   -3.0816   55.9618 C.2     1  ZINC000840649129    0.5200
     16 O16       -10.9155   -3.3550   54.9724 O.2     1  ZINC000840649129   -0.4900
     17 N17       -11.6361   -1.8047   56.3864 N.am    1  ZINC000840649129   -0.6600
     18 C18       -10.9677   -0.7939   55.6855 C.ar    1  ZINC000840649129    0.1600
     19 C19        -9.7570   -0.3048   56.1564 C.ar    1  ZINC000840649129   -0.1400
     20 C20        -9.0994    0.6926   55.4623 C.ar    1  ZINC000840649129   -0.0900
     21 C21        -9.6455    1.2039   54.2997 C.ar    1  ZINC000840649129   -0.1300
     22 C22       -10.8519    0.7196   53.8275 C.ar    1  ZINC000840649129   -0.0900
     23 C23       -11.5120   -0.2818   54.5136 C.ar    1  ZINC000840649129   -0.0700
     24 Cl24      -13.0259   -0.8899   53.9202 Cl      1  ZINC000840649129   -0.0700
     25 C25       -13.5977   -4.4960   56.0088 C.3     1  ZINC000840649129   -0.1100
     26 C26       -14.0797   -5.8820   56.4421 C.3     1  ZINC000840649129   -0.1600
     27 C27       -14.6503   -3.4503   56.3824 C.3     1  ZINC000840649129   -0.1500
     28 H28       -15.7189   -3.0770   59.7167 H       1  ZINC000840649129    0.1000
     29 H29       -14.4960   -3.9719   60.6505 H       1  ZINC000840649129    0.0600
     30 H30       -15.1512   -2.4409   61.2792 H       1  ZINC000840649129    0.0600
     31 H31       -13.5443   -0.6163   61.7242 H       1  ZINC000840649129    0.1400
     32 H32       -11.4657   -0.2354   62.9764 H       1  ZINC000840649129    0.1300
     33 H33        -9.1303   -0.7689   63.2702 H       1  ZINC000840649129    0.4000
     34 H34        -8.3273   -1.8786   62.2973 H       1  ZINC000840649129    0.4000
     35 H35        -9.4242   -3.0593   60.5022 H       1  ZINC000840649129    0.1400
     36 H36       -12.1529   -1.5860   57.1776 H       1  ZINC000840649129    0.4200
     37 H37        -9.3295   -0.7032   57.0646 H       1  ZINC000840649129    0.1700
     38 H38        -8.1575    1.0736   55.8286 H       1  ZINC000840649129    0.1300
     39 H39        -9.1292    1.9835   53.7594 H       1  ZINC000840649129    0.1300
     40 H40       -11.2761    1.1213   52.9191 H       1  ZINC000840649129    0.1400
     41 H41       -13.4427   -4.4861   54.9300 H       1  ZINC000840649129    0.0900
     42 H42       -14.1133   -5.9312   57.5305 H       1  ZINC000840649129    0.0700
     43 H43       -15.0763   -6.0624   56.0393 H       1  ZINC000840649129    0.0800
     44 H44       -13.3928   -6.6397   56.0652 H       1  ZINC000840649129    0.0600
     45 H45       -14.3070   -2.4628   56.0737 H       1  ZINC000840649129    0.0500
     46 H46       -15.5883   -3.6827   55.8783 H       1  ZINC000840649129    0.0600
     47 H47       -14.8054   -3.4601   57.4612 H       1  ZINC000840649129    0.0700
@<TRIPOS>BOND
     1     1     2    1
     2     1    28    1
     3     1    29    1
     4     1    30    1
     5     2     3    1
     6     3     9   ar
     7     3     4   ar
     8     4     5   ar
     9     4    31    1
    10     5     6   ar
    11     5    32    1
    12     6     7    1
    13     6     8   ar
    14     7    33    1
    15     7    34    1
    16     8     9   ar
    17     8    35    1
    18     9    10    1
    19    10    11    2
    20    10    12    1
    21    12    13    1
    22    13    14    1
    23    13    15    1
    24    13    25    1
    25    15    16    2
    26    15    17   am
    27    17    18    1
    28    17    36    1
    29    18    23   ar
    30    18    19   ar
    31    19    20   ar
    32    19    37    1
    33    20    21   ar
    34    20    38    1
    35    21    22   ar
    36    21    39    1
    37    22    23   ar
    38    22    40    1
    39    23    24    1
    40    25    26    1
    41    25    27    1
    42    25    41    1
    43    26    42    1
    44    26    43    1
    45    26    44    1
    46    27    45    1
    47    27    46    1
    48    27    47    1
@<TRIPOS>SUBSTRUCTURE
     1 ZINC000840649129        1 TEMP              0 ****  ****    0 ROOT


##########                                Name:    ZINC000611836474
##########                DOCK_Rotatable_Bonds:                   7
##########                         Heavy_Atoms:                  22
##########                    Molecular_Weight:             366.258
##########                DOCK_Rotatable_Bonds:                   7
##########                       Formal_Charge:          -0.0300004
##########                     HBond_Acceptors:                   5
##########                        HBond_Donors:                   1
##########                         Heavy_Atoms:                  22
##########                          Grid_Score:          -30.998741
##########                     Grid_vdw_energy:          -30.659525
##########                      Grid_es_energy:           -0.339217
##########           Internal_energy_repulsive:           12.576818

@<TRIPOS>MOLECULE
ZINC000611836474
 42 43 1 0 0
SMALL
USER_CHARGES


@<TRIPOS>ATOM
      1 C1        -15.5233   -4.1343   58.1303 C.3     1  ZINC000611836474   -0.1500
      2 C2        -14.6249   -3.6923   56.9733 C.3     1  ZINC000611836474   -0.1400
      3 C3        -13.8645   -4.9024   56.4271 C.3     1  ZINC000611836474    0.1300
      4 N4        -12.9717   -4.4719   55.3483 N.pl3   1  ZINC000611836474   -0.3900
      5 N5        -13.0186   -4.9053   54.0172 N.2     1  ZINC000611836474   -0.2900
      6 C6        -12.0664   -4.3016   53.3531 C.2     1  ZINC000611836474    0.0600
      7 C7        -11.3792   -3.4630   54.2349 C.2     1  ZINC000611836474   -0.2800
      8 C8        -11.9600   -3.5812   55.4603 C.2     1  ZINC000611836474    0.3000
      9 N9        -11.5763   -2.9117   56.6221 N.am    1  ZINC000611836474   -0.6500
     10 C10       -11.3750   -1.5793   56.5968 C.2     1  ZINC000611836474    0.5200
     11 O11       -11.5290   -0.9621   55.5640 O.2     1  ZINC000611836474   -0.4700
     12 C12       -10.9587   -0.8562   57.8518 C.3     1  ZINC000611836474    0.0700
     13 H13       -11.3839    0.1475   57.8508 H       1  ZINC000611836474    0.1100
     14 C14        -9.4325   -0.7635   57.9046 C.3     1  ZINC000611836474   -0.1800
     15 O15       -11.4322   -1.5729   58.9938 O.3     1  ZINC000611836474   -0.2700
     16 C16       -10.9726   -1.1717   60.2083 C.ar    1  ZINC000611836474    0.1500
     17 C17       -11.3843    0.0407   60.7409 C.ar    1  ZINC000611836474   -0.2000
     18 C18       -10.9156    0.4466   61.9759 C.ar    1  ZINC000611836474   -0.0600
     19 C19       -10.0364   -0.3544   62.6805 C.ar    1  ZINC000611836474   -0.1100
     20 C20        -9.5267    0.0913   64.0269 C.3     1  ZINC000611836474   -0.1100
     21 C21        -9.6243   -1.5641   62.1525 C.ar    1  ZINC000611836474   -0.0500
     22 C22       -10.0945   -1.9775   60.9204 C.ar    1  ZINC000611836474   -0.1200
     23 Br23       -9.5306   -3.6318   60.1985 Br      1  ZINC000611836474   -0.0300
     24 H24       -16.0650   -3.2721   58.5194 H       1  ZINC000611836474    0.0600
     25 H25       -16.2343   -4.8796   57.7740 H       1  ZINC000611836474    0.0600
     26 H26       -14.9104   -4.5658   58.9217 H       1  ZINC000611836474    0.0600
     27 H27       -15.2378   -3.2608   56.1819 H       1  ZINC000611836474    0.0800
     28 H28       -13.9140   -2.9470   57.3296 H       1  ZINC000611836474    0.0600
     29 H29       -13.2770   -5.3535   57.2267 H       1  ZINC000611836474    0.0800
     30 H30       -14.5746   -5.6337   56.0410 H       1  ZINC000611836474    0.1000
     31 H31       -11.8484   -4.4299   52.3032 H       1  ZINC000611836474    0.1900
     32 H32       -10.5393   -2.8310   53.9874 H       1  ZINC000611836474    0.1700
     33 H33       -11.4544   -3.4050   57.4484 H       1  ZINC000611836474    0.4100
     34 H34        -9.0714   -0.2167   57.0335 H       1  ZINC000611836474    0.0800
     35 H35        -9.1315   -0.2405   58.8123 H       1  ZINC000611836474    0.0800
     36 H36        -9.0074   -1.7671   57.9056 H       1  ZINC000611836474    0.0800
     37 H37       -12.0706    0.6675   60.1907 H       1  ZINC000611836474    0.1400
     38 H38       -11.2361    1.3907   62.3908 H       1  ZINC000611836474    0.1300
     39 H39       -10.1966   -0.2705   64.8070 H       1  ZINC000611836474    0.0700
     40 H40        -8.5278   -0.3132   64.1893 H       1  ZINC000611836474    0.0700
     41 H41        -9.4873    1.1802   64.0581 H       1  ZINC000611836474    0.0700
     42 H42        -8.9374   -2.1882   62.7049 H       1  ZINC000611836474    0.1400
@<TRIPOS>BOND
     1     1     2    1
     2     1    24    1
     3     1    25    1
     4     1    26    1
     5     2     3    1
     6     2    27    1
     7     2    28    1
     8     3     4    1
     9     3    29    1
    10     3    30    1
    11     4     8    1
    12     4     5    1
    13     5     6    2
    14     6     7    1
    15     6    31    1
    16     7     8    2
    17     7    32    1
    18     8     9    1
    19     9    10   am
    20     9    33    1
    21    10    11    2
    22    10    12    1
    23    12    13    1
    24    12    14    1
    25    12    15    1
    26    14    34    1
    27    14    35    1
    28    14    36    1
    29    15    16    1
    30    16    22   ar
    31    16    17   ar
    32    17    18   ar
    33    17    37    1
    34    18    19   ar
    35    18    38    1
    36    19    20    1
    37    19    21   ar
    38    20    39    1
    39    20    40    1
    40    20    41    1
    41    21    22   ar
    42    21    42    1
    43    22    23    1
@<TRIPOS>SUBSTRUCTURE
     1 ZINC000611836474        1 TEMP              0 ****  ****    0 ROOT


##########                                Name:    ZINC001023407238
##########                DOCK_Rotatable_Bonds:                   7
##########                         Heavy_Atoms:                  25
##########                    Molecular_Weight:             349.387
##########                DOCK_Rotatable_Bonds:                   7
##########                       Formal_Charge:          -0.0300008
##########                     HBond_Acceptors:                   8
##########                        HBond_Donors:                   2
##########                         Heavy_Atoms:                  25
##########                          Grid_Score:          -30.991510
##########                     Grid_vdw_energy:          -29.574743
##########                      Grid_es_energy:           -1.416767
##########           Internal_energy_repulsive:            7.928019

@<TRIPOS>MOLECULE
ZINC001023407238
 48 50 1 0 0
SMALL
USER_CHARGES


@<TRIPOS>ATOM
      1 C1        -11.0033   -2.9251   52.6361 C.3     1  ZINC001023407238   -0.0900
      2 C2        -12.4981   -2.7600   52.5398 C.2     1  ZINC001023407238   -0.1100
      3 C3        -13.4446   -3.4030   53.3088 C.2     1  ZINC001023407238   -0.0500
      4 C4        -13.1808   -4.3763   54.3740 C.2     1  ZINC001023407238    0.6100
      5 O5        -13.3468   -5.5641   54.1676 O.2     1  ZINC001023407238   -0.5100
      6 N6        -12.7547   -3.9552   55.5812 N.am    1  ZINC001023407238   -0.6100
      7 C7        -12.4537   -4.8183   56.7327 C.3     1  ZINC001023407238    0.0800
      8 C8        -11.9763   -3.9025   57.8794 C.3     1  ZINC001023407238    0.0900
      9 H9        -12.8004   -3.6655   58.5523 H       1  ZINC001023407238    0.0800
     10 O10       -10.8993   -4.5094   58.5962 O.3     1  ZINC001023407238   -0.5500
     11 C11       -11.4953   -2.6310   57.1314 C.3     1  ZINC001023407238    0.1400
     12 H12       -10.4800   -2.7590   56.7562 H       1  ZINC001023407238    0.1200
     13 N13       -11.5892   -1.4488   57.9915 N.am    1  ZINC001023407238   -0.7200
     14 C14       -10.4727   -0.9095   58.5198 C.2     1  ZINC001023407238    0.5200
     15 O15        -9.3905   -1.4038   58.2844 O.2     1  ZINC001023407238   -0.5300
     16 C16       -10.5690    0.3078   59.4031 C.3     1  ZINC001023407238   -0.1300
     17 C17       -10.5367   -0.1233   60.8707 C.3     1  ZINC001023407238   -0.1100
     18 H18        -9.6834   -0.7736   61.0639 H       1  ZINC001023407238    0.1100
     19 C19       -10.5140    1.1072   61.8058 C.3     1  ZINC001023407238    0.0600
     20 O20       -11.2986    0.6979   62.9649 O.3     1  ZINC001023407238   -0.3500
     21 C21       -12.2428   -0.1772   62.5909 C.2     1  ZINC001023407238    0.4800
     22 O22       -13.2487   -0.4222   63.2140 O.2     1  ZINC001023407238   -0.4600
     23 C23       -11.8584   -0.8167   61.2698 C.3     1  ZINC001023407238   -0.1800
     24 C24       -12.5072   -2.5531   55.9640 C.3     1  ZINC001023407238    0.1000
     25 N25       -14.6823   -2.9649   52.8953 N.pl3   1  ZINC001023407238   -0.4200
     26 C26       -15.9693   -3.3948   53.4477 C.3     1  ZINC001023407238    0.0700
     27 C27       -14.5121   -2.0697   51.8920 C.2     1  ZINC001023407238    0.0100
     28 C28       -13.1863   -1.9211   51.6578 C.2     1  ZINC001023407238   -0.2000
     29 H29       -10.6035   -2.2054   53.3504 H       1  ZINC001023407238    0.0600
     30 H30       -10.7702   -3.9363   52.9701 H       1  ZINC001023407238    0.0600
     31 H31       -10.5549   -2.7533   51.6575 H       1  ZINC001023407238    0.0700
     32 H32       -13.3513   -5.3563   57.0373 H       1  ZINC001023407238    0.0800
     33 H33       -11.6664   -5.5250   56.4705 H       1  ZINC001023407238    0.0800
     34 H34       -10.3862   -3.8904   59.1334 H       1  ZINC001023407238    0.3900
     35 H35       -12.4548   -1.0540   58.1807 H       1  ZINC001023407238    0.4100
     36 H36        -9.7281    0.9711   59.2007 H       1  ZINC001023407238    0.1000
     37 H37       -11.5026    0.8320   59.1988 H       1  ZINC001023407238    0.1100
     38 H38        -9.4915    1.3415   62.1018 H       1  ZINC001023407238    0.1200
     39 H39       -10.9758    1.9651   61.3172 H       1  ZINC001023407238    0.0800
     40 H40       -12.6256   -0.6271   60.5191 H       1  ZINC001023407238    0.1100
     41 H41       -11.7075   -1.8887   61.3969 H       1  ZINC001023407238    0.1200
     42 H42       -12.0804   -1.9979   55.1285 H       1  ZINC001023407238    0.0900
     43 H43       -13.4347   -2.0867   56.2961 H       1  ZINC001023407238    0.0800
     44 H44       -16.2895   -2.6891   54.2143 H       1  ZINC001023407238    0.0800
     45 H45       -16.7132   -3.4287   52.6516 H       1  ZINC001023407238    0.0900
     46 H46       -15.8628   -4.3861   53.8880 H       1  ZINC001023407238    0.0800
     47 H47       -15.3040   -1.5559   51.3675 H       1  ZINC001023407238    0.1700
     48 H48       -12.7401   -1.2747   50.9164 H       1  ZINC001023407238    0.1400
@<TRIPOS>BOND
     1     1     2    1
     2     1    29    1
     3     1    30    1
     4     1    31    1
     5     2    28    1
     6     2     3    2
     7     3     4    1
     8     3    25    1
     9     4     5    2
    10     4     6   am
    11     6    24    1
    12     6     7    1
    13     7     8    1
    14     7    32    1
    15     7    33    1
    16     8     9    1
    17     8    10    1
    18     8    11    1
    19    10    34    1
    20    11    12    1
    21    11    13    1
    22    11    24    1
    23    13    14   am
    24    13    35    1
    25    14    15    2
    26    14    16    1
    27    16    17    1
    28    16    36    1
    29    16    37    1
    30    17    18    1
    31    17    23    1
    32    17    19    1
    33    19    20    1
    34    19    38    1
    35    19    39    1
    36    20    21    1
    37    21    22    2
    38    21    23    1
    39    23    40    1
    40    23    41    1
    41    24    42    1
    42    24    43    1
    43    25    26    1
    44    25    27    1
    45    26    44    1
    46    26    45    1
    47    26    46    1
    48    27    28    2
    49    27    47    1
    50    28    48    1
@<TRIPOS>SUBSTRUCTURE
     1 ZINC001023407238        1 TEMP              0 ****  ****    0 ROOT


##########                                Name:    ZINC000330515179
##########                DOCK_Rotatable_Bonds:                   4
##########                         Heavy_Atoms:                  21
##########                    Molecular_Weight:             378.287
##########                DOCK_Rotatable_Bonds:                   4
##########                       Formal_Charge:           0.0200002
##########                     HBond_Acceptors:                   6
##########                        HBond_Donors:                   0
##########                         Heavy_Atoms:                  21
##########                          Grid_Score:          -30.970718
##########                     Grid_vdw_energy:          -29.901016
##########                      Grid_es_energy:           -1.069702
##########           Internal_energy_repulsive:            5.534313

@<TRIPOS>MOLECULE
ZINC000330515179
 41 42 1 0 0
SMALL
USER_CHARGES


@<TRIPOS>ATOM
      1 C1        -13.9691   -5.8287   55.9042 C.3     1  ZINC000330515179    0.0300
      2 O2        -12.9902   -4.7949   55.7807 O.3     1  ZINC000330515179   -0.3800
      3 C3        -12.1099   -4.6911   56.9015 C.3     1  ZINC000330515179    0.0700
      4 C4        -12.4637   -3.4440   57.7141 C.3     1  ZINC000330515179    0.0800
      5 H5        -12.7444   -2.6364   57.0379 H       1  ZINC000330515179    0.0800
      6 C6        -11.2510   -3.0151   58.5480 C.3     1  ZINC000330515179    0.0900
      7 N7        -11.6702   -1.9352   59.4555 N.am    1  ZINC000330515179   -1.0000
      8 S8        -10.8133   -0.5214   59.5513 S.o2    1  ZINC000330515179    2.6900
      9 O9         -9.6484   -0.7039   58.7582 O.2     1  ZINC000330515179   -0.9400
     10 O10       -11.7455    0.5285   59.3329 O.2     1  ZINC000330515179   -0.9500
     11 C11       -10.2610   -0.3581   61.2165 C.ar    1  ZINC000330515179   -0.6700
     12 C12        -9.5647   -1.3899   61.8179 C.ar    1  ZINC000330515179   -0.0100
     13 C13        -9.1309   -1.2621   63.1240 C.ar    1  ZINC000330515179   -0.1100
     14 C14        -9.3936   -0.1015   63.8293 C.ar    1  ZINC000330515179   -0.0400
     15 Br15       -8.7998    0.0742   65.6161 Br      1  ZINC000330515179   -0.0300
     16 C16       -10.0903    0.9306   63.2272 C.ar    1  ZINC000330515179   -0.1100
     17 C17       -10.5191    0.8040   61.9193 C.ar    1  ZINC000330515179   -0.0100
     18 C18       -12.8731   -2.1490   60.2756 C.3     1  ZINC000330515179    0.1000
     19 C19       -14.0068   -2.6200   59.3576 C.3     1  ZINC000330515179    0.1000
     20 C20       -15.2113   -3.0352   60.2046 C.3     1  ZINC000330515179   -0.1400
     21 C21       -14.4105   -1.4815   58.4185 C.3     1  ZINC000330515179   -0.1800
     22 O22       -13.5567   -3.7373   58.5875 O.3     1  ZINC000330515179   -0.3500
     23 H23       -14.5976   -5.8423   55.0138 H       1  ZINC000330515179    0.0900
     24 H24       -13.4693   -6.7915   56.0109 H       1  ZINC000330515179    0.0400
     25 H25       -14.5870   -5.6408   56.7823 H       1  ZINC000330515179    0.0400
     26 H26       -12.2152   -5.5758   57.5295 H       1  ZINC000330515179    0.0600
     27 H27       -11.0810   -4.6158   56.5497 H       1  ZINC000330515179    0.0700
     28 H28       -10.8868   -3.8623   59.1290 H       1  ZINC000330515179    0.0900
     29 H29       -10.4611   -2.6548   57.8889 H       1  ZINC000330515179    0.1000
     30 H30        -9.3600   -2.2961   61.2672 H       1  ZINC000330515179    0.1500
     31 H31        -8.5873   -2.0683   63.5939 H       1  ZINC000330515179    0.1500
     32 H32       -10.2956    1.8369   63.7774 H       1  ZINC000330515179    0.1500
     33 H33       -11.0631    1.6098   61.4491 H       1  ZINC000330515179    0.1500
     34 H34       -12.6723   -2.9090   61.0306 H       1  ZINC000330515179    0.0900
     35 H35       -13.1575   -1.2151   60.7606 H       1  ZINC000330515179    0.1000
     36 H36       -15.5517   -2.1840   60.7941 H       1  ZINC000330515179    0.0800
     37 H37       -16.0170   -3.3700   59.5512 H       1  ZINC000330515179    0.0700
     38 H38       -14.9235   -3.8475   60.8721 H       1  ZINC000330515179    0.0700
     39 H39       -13.5524   -1.1874   57.8141 H       1  ZINC000330515179    0.0600
     40 H40       -15.2165   -1.8172   57.7661 H       1  ZINC000330515179    0.0700
     41 H41       -14.7502   -0.6288   59.0065 H       1  ZINC000330515179    0.0700
@<TRIPOS>BOND
     1     1     2    1
     2     1    23    1
     3     1    24    1
     4     1    25    1
     5     2     3    1
     6     3     4    1
     7     3    26    1
     8     3    27    1
     9     4     5    1
    10     4    22    1
    11     4     6    1
    12     6     7    1
    13     6    28    1
    14     6    29    1
    15     7     8   am
    16     7    18    1
    17     8     9    2
    18     8    10    2
    19     8    11    1
    20    11    17   ar
    21    11    12   ar
    22    12    13   ar
    23    12    30    1
    24    13    14   ar
    25    13    31    1
    26    14    15    1
    27    14    16   ar
    28    16    17   ar
    29    16    32    1
    30    17    33    1
    31    18    19    1
    32    18    34    1
    33    18    35    1
    34    19    20    1
    35    19    21    1
    36    19    22    1
    37    20    36    1
    38    20    37    1
    39    20    38    1
    40    21    39    1
    41    21    40    1
    42    21    41    1
@<TRIPOS>SUBSTRUCTURE
     1 ZINC000330515179        1 TEMP              0 ****  ****    0 ROOT


##########                                Name:    ZINC000486710336
##########                DOCK_Rotatable_Bonds:                   6
##########                         Heavy_Atoms:                  31
##########                    Molecular_Weight:             420.555
##########                DOCK_Rotatable_Bonds:                   6
##########                       Formal_Charge:         1.49012e-07
##########                     HBond_Acceptors:                   6
##########                        HBond_Donors:                   1
##########                         Heavy_Atoms:                  31
##########                          Grid_Score:          -30.964439
##########                     Grid_vdw_energy:          -30.533926
##########                      Grid_es_energy:           -0.430513
##########           Internal_energy_repulsive:           55.480923

@<TRIPOS>MOLECULE
ZINC000486710336
 63 67 1 0 0
SMALL
USER_CHARGES


@<TRIPOS>ATOM
      1 C1         -7.5107    3.5166   53.6176 C.3     1  ZINC000486710336    0.1000
      2 N2         -6.7286    2.7337   52.6576 N.pl3   1  ZINC000486710336   -0.3900
      3 N3         -5.4051    2.9835   52.2728 N.2     1  ZINC000486710336   -0.2800
      4 C4         -5.0491    2.0744   51.4017 C.2     1  ZINC000486710336    0.1000
      5 C5         -3.7025    1.9751   50.7323 C.3     1  ZINC000486710336   -0.0100
      6 C6         -3.8669    1.6191   49.2340 C.3     1  ZINC000486710336   -0.1200
      7 C7         -2.5501    2.1455   48.6111 C.3     1  ZINC000486710336   -0.1200
      8 C8         -2.2703    3.4584   49.3712 C.3     1  ZINC000486710336   -0.1200
      9 C9         -3.0030    3.3500   50.7200 C.3     1  ZINC000486710336   -0.1100
     10 C10        -6.1283    1.2113   51.1970 C.2     1  ZINC000486710336   -0.2600
     11 C11        -7.1555    1.6326   51.9862 C.2     1  ZINC000486710336    0.3000
     12 N12        -8.4146    1.0467   52.0813 N.am    1  ZINC000486710336   -0.6200
     13 C13        -8.5333   -0.2955   52.1048 C.2     1  ZINC000486710336    0.5100
     14 O14        -7.5423   -0.9937   52.0413 O.2     1  ZINC000486710336   -0.4800
     15 C15        -9.8837   -0.9239   52.2086 C.2     1  ZINC000486710336    0.5300
     16 O16       -10.1587   -1.8877   51.5242 O.2     1  ZINC000486710336   -0.5100
     17 N17       -10.7973   -0.4208   53.0621 N.am    1  ZINC000486710336   -0.5800
     18 C18       -10.6080    0.7420   53.9481 C.3     1  ZINC000486710336    0.1000
     19 C19       -11.9113    0.9138   54.7595 C.3     1  ZINC000486710336   -0.0600
     20 H20       -12.5676    1.6445   54.2867 H       1  ZINC000486710336    0.1000
     21 C21       -11.6075    1.3121   56.1808 C.ar    1  ZINC000486710336   -0.0700
     22 C22       -12.5385    1.0836   57.1768 C.ar    1  ZINC000486710336   -0.1100
     23 C23       -12.2597    1.4489   58.4804 C.ar    1  ZINC000486710336   -0.1200
     24 C24       -11.0498    2.0423   58.7883 C.ar    1  ZINC000486710336   -0.1200
     25 C25       -10.1185    2.2701   57.7926 C.ar    1  ZINC000486710336   -0.1200
     26 C26       -10.3954    1.9008   56.4896 C.ar    1  ZINC000486710336   -0.1100
     27 C27       -12.5397   -0.5125   54.7027 C.3     1  ZINC000486710336   -0.0800
     28 H28       -13.6181   -0.5049   54.8607 H       1  ZINC000486710336    0.1100
     29 C29       -11.8031   -1.3562   55.7453 C.3     1  ZINC000486710336   -0.1100
     30 C30       -12.0368   -2.8445   55.4974 C.3     1  ZINC000486710336   -0.1200
     31 C31       -11.4698   -3.2075   54.1208 C.3     1  ZINC000486710336   -0.1100
     32 C32       -12.2476   -2.4315   53.0579 C.3     1  ZINC000486710336   -0.1400
     33 C33       -12.1559   -0.9294   53.2686 C.3     1  ZINC000486710336    0.1400
     34 H34       -12.8142   -0.4374   52.5524 H       1  ZINC000486710336    0.0800
     35 H35        -7.3651    3.1131   54.6197 H       1  ZINC000486710336    0.0800
     36 H36        -7.1819    4.5554   53.5928 H       1  ZINC000486710336    0.1000
     37 H37        -8.5671    3.4634   53.3546 H       1  ZINC000486710336    0.0800
     38 H38        -3.0806    1.2353   51.2364 H       1  ZINC000486710336    0.0900
     39 H39        -3.9534    0.5408   49.1003 H       1  ZINC000486710336    0.0700
     40 H40        -4.7284    2.1327   48.8071 H       1  ZINC000486710336    0.0800
     41 H41        -1.7410    1.4326   48.7704 H       1  ZINC000486710336    0.0700
     42 H42        -2.6830    2.3416   47.5471 H       1  ZINC000486710336    0.0700
     43 H43        -1.1990    3.5731   49.5365 H       1  ZINC000486710336    0.0600
     44 H44        -2.6541    4.3068   48.8049 H       1  ZINC000486710336    0.0600
     45 H45        -3.7425    4.1460   50.8081 H       1  ZINC000486710336    0.0700
     46 H46        -2.2874    3.4123   51.5398 H       1  ZINC000486710336    0.0700
     47 H47        -6.1440    0.3591   50.5338 H       1  ZINC000486710336    0.1700
     48 H48        -9.2066    1.6046   52.1309 H       1  ZINC000486710336    0.4200
     49 H49        -9.7716    0.5618   54.6234 H       1  ZINC000486710336    0.0900
     50 H50       -10.4212    1.6356   53.3526 H       1  ZINC000486710336    0.0800
     51 H51       -13.4837    0.6199   56.9361 H       1  ZINC000486710336    0.1200
     52 H52       -12.9874    1.2710   59.2584 H       1  ZINC000486710336    0.1200
     53 H53       -10.8324    2.3284   59.8068 H       1  ZINC000486710336    0.1200
     54 H54        -9.1733    2.7341   58.0331 H       1  ZINC000486710336    0.1200
     55 H55        -9.6678    2.0787   55.7116 H       1  ZINC000486710336    0.1200
     56 H56       -10.7351   -1.1459   55.6878 H       1  ZINC000486710336    0.0700
     57 H57       -12.1666   -1.0963   56.7394 H       1  ZINC000486710336    0.0700
     58 H58       -11.5302   -3.4273   56.2668 H       1  ZINC000486710336    0.0600
     59 H59       -13.1059   -3.0556   55.5199 H       1  ZINC000486710336    0.0600
     60 H60       -10.4152   -2.9361   54.0750 H       1  ZINC000486710336    0.0500
     61 H61       -11.5815   -4.2781   53.9485 H       1  ZINC000486710336    0.0600
     62 H62       -11.8490   -2.6767   52.0735 H       1  ZINC000486710336    0.1000
     63 H63       -13.2972   -2.7227   53.0998 H       1  ZINC000486710336    0.0700
@<TRIPOS>BOND
     1     1     2    1
     2     1    35    1
     3     1    36    1
     4     1    37    1
     5     2    11    1
     6     2     3    1
     7     3     4    2
     8     4     5    1
     9     4    10    1
    10     5     9    1
    11     5     6    1
    12     5    38    1
    13     6     7    1
    14     6    39    1
    15     6    40    1
    16     7     8    1
    17     7    41    1
    18     7    42    1
    19     8     9    1
    20     8    43    1
    21     8    44    1
    22     9    45    1
    23     9    46    1
    24    10    11    2
    25    10    47    1
    26    11    12    1
    27    12    13   am
    28    12    48    1
    29    13    14    2
    30    13    15    1
    31    15    16    2
    32    15    17   am
    33    17    33    1
    34    17    18    1
    35    18    19    1
    36    18    49    1
    37    18    50    1
    38    19    20    1
    39    19    21    1
    40    19    27    1
    41    21    26   ar
    42    21    22   ar
    43    22    23   ar
    44    22    51    1
    45    23    24   ar
    46    23    52    1
    47    24    25   ar
    48    24    53    1
    49    25    26   ar
    50    25    54    1
    51    26    55    1
    52    27    28    1
    53    27    33    1
    54    27    29    1
    55    29    30    1
    56    29    56    1
    57    29    57    1
    58    30    31    1
    59    30    58    1
    60    30    59    1
    61    31    32    1
    62    31    60    1
    63    31    61    1
    64    32    33    1
    65    32    62    1
    66    32    63    1
    67    33    34    1
@<TRIPOS>SUBSTRUCTURE
     1 ZINC000486710336        1 TEMP              0 ****  ****    0 ROOT


##########                                Name:    ZINC000680410869
##########                DOCK_Rotatable_Bonds:                   6
##########                         Heavy_Atoms:                  24
##########                    Molecular_Weight:             335.354
##########                DOCK_Rotatable_Bonds:                   6
##########                       Formal_Charge:        -1.04308e-07
##########                     HBond_Acceptors:                   7
##########                        HBond_Donors:                   0
##########                         Heavy_Atoms:                  24
##########                          Grid_Score:          -30.962454
##########                     Grid_vdw_energy:          -29.944632
##########                      Grid_es_energy:           -1.017823
##########           Internal_energy_repulsive:            9.778567

@<TRIPOS>MOLECULE
ZINC000680410869
 43 45 1 0 0
SMALL
USER_CHARGES


@<TRIPOS>ATOM
      1 O1        -10.6953   -5.5783   58.1675 O.2     1  ZINC000680410869   -0.5200
      2 C2        -10.7958   -4.4403   57.7515 C.2     1  ZINC000680410869    0.6100
      3 C3        -11.6019   -4.1635   56.5451 C.2     1  ZINC000680410869    0.0100
      4 N4        -11.1442   -3.9561   55.3265 N.2     1  ZINC000680410869   -0.2500
      5 N5        -12.1208   -3.7467   54.5185 N.pl3   1  ZINC000680410869   -0.3500
      6 C6        -11.9796   -3.4811   53.0847 C.3     1  ZINC000680410869    0.5000
      7 F7        -12.6730   -2.3111   52.7566 F       1  ZINC000680410869   -0.1600
      8 F8        -10.6255   -3.3243   52.7705 F       1  ZINC000680410869   -0.1700
      9 C9        -13.2960   -3.8072   55.1807 C.2     1  ZINC000680410869    0.0100
     10 C10       -13.0126   -4.0765   56.4766 C.2     1  ZINC000680410869   -0.1700
     11 N11       -10.1763   -3.4307   58.3943 N.am    1  ZINC000680410869   -0.6000
     12 C12        -9.3679   -3.6818   59.5980 C.3     1  ZINC000680410869    0.0800
     13 C13        -9.8205   -2.7119   60.6953 C.3     1  ZINC000680410869    0.0500
     14 O14        -9.7983   -1.3775   60.1827 O.3     1  ZINC000680410869   -0.3700
     15 C15       -10.6956   -1.1544   59.0924 C.3     1  ZINC000680410869    0.0800
     16 H16       -11.7116   -1.4013   59.4006 H       1  ZINC000680410869    0.0600
     17 C17       -10.6323    0.3150   58.6709 C.3     1  ZINC000680410869   -0.1000
     18 C18       -11.9870    0.9781   58.9278 C.3     1  ZINC000680410869   -0.0800
     19 C19       -12.3422    0.8465   60.3864 C.ar    1  ZINC000680410869   -0.0800
     20 C20       -13.4309    0.0841   60.7665 C.ar    1  ZINC000680410869   -0.1200
     21 C21       -13.7568   -0.0366   62.1044 C.ar    1  ZINC000680410869   -0.1200
     22 C22       -12.9937    0.6046   63.0623 C.ar    1  ZINC000680410869   -0.1300
     23 C23       -11.9045    1.3662   62.6822 C.ar    1  ZINC000680410869   -0.1200
     24 C24       -11.5761    1.4835   61.3446 C.ar    1  ZINC000680410869   -0.1200
     25 C25       -10.2832   -2.0454   57.9096 C.3     1  ZINC000680410869    0.0600
     26 H26       -12.3896   -4.3173   52.5183 H       1  ZINC000680410869    0.1700
     27 H27       -14.2791   -3.6705   54.7549 H       1  ZINC000680410869    0.1900
     28 H28       -13.7149   -4.1943   57.2885 H       1  ZINC000680410869    0.1700
     29 H29        -9.5159   -4.7088   59.9318 H       1  ZINC000680410869    0.1000
     30 H30        -8.3142   -3.5164   59.3735 H       1  ZINC000680410869    0.0800
     31 H31       -10.8333   -2.9644   61.0094 H       1  ZINC000680410869    0.0600
     32 H32        -9.1451   -2.7857   61.5478 H       1  ZINC000680410869    0.1100
     33 H33        -9.8622    0.8260   59.2489 H       1  ZINC000680410869    0.0800
     34 H34       -10.3921    0.3785   57.6096 H       1  ZINC000680410869    0.0800
     35 H35       -11.9313    2.0336   58.6612 H       1  ZINC000680410869    0.0700
     36 H36       -12.7509    0.4903   58.3222 H       1  ZINC000680410869    0.0800
     37 H37       -14.0270   -0.4169   60.0181 H       1  ZINC000680410869    0.1200
     38 H38       -14.6077   -0.6318   62.4014 H       1  ZINC000680410869    0.1200
     39 H39       -13.2488    0.5109   64.1076 H       1  ZINC000680410869    0.1200
     40 H40       -11.3085    1.8676   63.4305 H       1  ZINC000680410869    0.1200
     41 H41       -10.7252    2.0786   61.0476 H       1  ZINC000680410869    0.1200
     42 H42        -9.3223   -1.7128   57.5171 H       1  ZINC000680410869    0.0800
     43 H43       -11.0395   -1.9893   57.1266 H       1  ZINC000680410869    0.1300
@<TRIPOS>BOND
     1     1     2    2
     2     2     3    1
     3     2    11   am
     4     3    10    1
     5     3     4    2
     6     4     5    1
     7     5     6    1
     8     5     9    1
     9     6     7    1
    10     6     8    1
    11     6    26    1
    12     9    10    2
    13     9    27    1
    14    10    28    1
    15    11    25    1
    16    11    12    1
    17    12    13    1
    18    12    29    1
    19    12    30    1
    20    13    14    1
    21    13    31    1
    22    13    32    1
    23    14    15    1
    24    15    16    1
    25    15    17    1
    26    15    25    1
    27    17    18    1
    28    17    33    1
    29    17    34    1
    30    18    19    1
    31    18    35    1
    32    18    36    1
    33    19    24   ar
    34    19    20   ar
    35    20    21   ar
    36    20    37    1
    37    21    22   ar
    38    21    38    1
    39    22    23   ar
    40    22    39    1
    41    23    24   ar
    42    23    40    1
    43    24    41    1
    44    25    42    1
    45    25    43    1
@<TRIPOS>SUBSTRUCTURE
     1 ZINC000680410869        1 TEMP              0 ****  ****    0 ROOT


##########                                Name:    ZINC001016082614
##########                DOCK_Rotatable_Bonds:                   6
##########                         Heavy_Atoms:                  25
##########                    Molecular_Weight:             348.402
##########                DOCK_Rotatable_Bonds:                   6
##########                       Formal_Charge:         -0.00999998
##########                     HBond_Acceptors:                   8
##########                        HBond_Donors:                   1
##########                         Heavy_Atoms:                  25
##########                          Grid_Score:          -30.961704
##########                     Grid_vdw_energy:          -29.806328
##########                      Grid_es_energy:           -1.155377
##########           Internal_energy_repulsive:           36.141609

@<TRIPOS>MOLECULE
ZINC001016082614
 49 51 1 0 0
SMALL
USER_CHARGES


@<TRIPOS>ATOM
      1 C1        -14.1227    1.0449   59.2668 C.3     1  ZINC001016082614   -0.1700
      2 C2        -14.0058   -0.3273   59.9334 C.3     1  ZINC001016082614    0.1000
      3 N3        -12.6804   -0.4629   60.5426 N.am    1  ZINC001016082614   -0.6100
      4 C4        -12.4101    0.1507   61.7119 C.2     1  ZINC001016082614    0.6100
      5 O5        -13.2670    0.8173   62.2614 O.2     1  ZINC001016082614   -0.5100
      6 C6        -11.0827    0.0149   62.3219 C.2     1  ZINC001016082614   -0.1100
      7 C7        -10.3609    1.0002   62.9276 C.2     1  ZINC001016082614    0.0600
      8 N8         -9.2129    0.4571   63.3456 N.2     1  ZINC001016082614   -0.4900
      9 C9         -9.2000   -0.8089   63.0248 C.2     1  ZINC001016082614    0.2000
     10 O10       -10.3402   -1.1141   62.3976 O.3     1  ZINC001016082614   -0.1900
     11 C11       -11.6487   -1.2654   59.8809 C.3     1  ZINC001016082614    0.1600
     12 H12       -10.6727   -0.9267   60.2285 H       1  ZINC001016082614    0.0800
     13 C13       -11.8306   -2.7231   60.2928 C.3     1  ZINC001016082614   -0.1300
     14 C14       -10.5063   -3.4394   60.1950 C.3     1  ZINC001016082614   -0.1300
     15 C15       -10.3538   -4.0819   58.8043 C.3     1  ZINC001016082614    0.1000
     16 N16       -10.8516   -3.2030   57.7279 N.am    1  ZINC001016082614   -0.6000
     17 C17       -11.5771   -3.7487   56.7319 C.2     1  ZINC001016082614    0.5000
     18 O18       -11.8089   -4.9391   56.7324 O.2     1  ZINC001016082614   -0.5200
     19 C19       -12.1004   -2.8797   55.6174 C.3     1  ZINC001016082614    0.1100
     20 H20       -12.1253   -1.8367   55.9331 H       1  ZINC001016082614    0.1100
     21 C21       -13.5118   -3.3443   55.1949 C.3     1  ZINC001016082614   -0.1200
     22 C22       -13.1908   -4.3055   54.0271 C.3     1  ZINC001016082614   -0.1600
     23 C23       -11.8497   -3.8302   53.5132 C.2     1  ZINC001016082614    0.5300
     24 O24       -11.3725   -4.1276   52.4386 O.2     1  ZINC001016082614   -0.5300
     25 N25       -11.2628   -3.0283   54.4214 N.am    1  ZINC001016082614   -0.7100
     26 C26       -10.5932   -1.7808   57.6983 C.3     1  ZINC001016082614    0.1300
     27 C27       -11.7346   -1.0330   58.4310 C.3     1  ZINC001016082614   -0.1600
     28 H28       -15.1089    1.1458   58.8135 H       1  ZINC001016082614    0.0700
     29 H29       -13.9853    1.8253   60.0152 H       1  ZINC001016082614    0.0500
     30 H30       -13.3574    1.1411   58.4967 H       1  ZINC001016082614    0.0600
     31 H31       -14.7712   -0.4235   60.7036 H       1  ZINC001016082614    0.0900
     32 H32       -14.1433   -1.1077   59.1850 H       1  ZINC001016082614    0.0900
     33 H33       -10.6612    2.0307   63.0474 H       1  ZINC001016082614    0.2000
     34 H34        -8.3976   -1.5002   63.2366 H       1  ZINC001016082614    0.2600
     35 H35       -12.1936   -2.7684   61.3196 H       1  ZINC001016082614    0.0700
     36 H36       -12.5522   -3.2009   59.6302 H       1  ZINC001016082614    0.0800
     37 H37        -9.6972   -2.7266   60.3545 H       1  ZINC001016082614    0.0700
     38 H38       -10.4577   -4.2154   60.9589 H       1  ZINC001016082614    0.0800
     39 H39        -9.2999   -4.2965   58.6271 H       1  ZINC001016082614    0.0700
     40 H40       -10.9123   -5.0178   58.7837 H       1  ZINC001016082614    0.0800
     41 H41       -14.0087   -3.8718   56.0091 H       1  ZINC001016082614    0.1000
     42 H42       -14.1136   -2.5022   54.8530 H       1  ZINC001016082614    0.1000
     43 H43       -13.1197   -5.3321   54.3865 H       1  ZINC001016082614    0.1100
     44 H44       -13.9484   -4.2249   53.2475 H       1  ZINC001016082614    0.1100
     45 H45       -10.3987   -2.6046   54.3002 H       1  ZINC001016082614    0.4200
     46 H46        -9.6446   -1.5739   58.1937 H       1  ZINC001016082614    0.0800
     47 H47       -10.5429   -1.4426   56.6633 H       1  ZINC001016082614    0.0900
     48 H48       -12.6956   -1.3906   58.0614 H       1  ZINC001016082614    0.0900
     49 H49       -11.6503    0.0357   58.2343 H       1  ZINC001016082614    0.0700
@<TRIPOS>BOND
     1     1     2    1
     2     1    28    1
     3     1    29    1
     4     1    30    1
     5     2     3    1
     6     2    31    1
     7     2    32    1
     8     3     4   am
     9     3    11    1
    10     4     5    2
    11     4     6    1
    12     6    10    1
    13     6     7    2
    14     7     8    1
    15     7    33    1
    16     8     9    2
    17     9    10    1
    18     9    34    1
    19    11    12    1
    20    11    27    1
    21    11    13    1
    22    13    14    1
    23    13    35    1
    24    13    36    1
    25    14    15    1
    26    14    37    1
    27    14    38    1
    28    15    16    1
    29    15    39    1
    30    15    40    1
    31    16    17   am
    32    16    26    1
    33    17    18    2
    34    17    19    1
    35    19    20    1
    36    19    25    1
    37    19    21    1
    38    21    22    1
    39    21    41    1
    40    21    42    1
    41    22    23    1
    42    22    43    1
    43    22    44    1
    44    23    24    2
    45    23    25   am
    46    25    45    1
    47    26    27    1
    48    26    46    1
    49    26    47    1
    50    27    48    1
    51    27    49    1
@<TRIPOS>SUBSTRUCTURE
     1 ZINC001016082614        1 TEMP              0 ****  ****    0 ROOT


##########                                Name:    ZINC000616491533
##########                DOCK_Rotatable_Bonds:                   4
##########                         Heavy_Atoms:                  27
##########                    Molecular_Weight:             375.418
##########                DOCK_Rotatable_Bonds:                   4
##########                       Formal_Charge:           0.0299996
##########                     HBond_Acceptors:                   7
##########                        HBond_Donors:                   0
##########                         Heavy_Atoms:                  27
##########                          Grid_Score:          -30.914751
##########                     Grid_vdw_energy:          -30.115347
##########                      Grid_es_energy:           -0.799403
##########           Internal_energy_repulsive:           12.927042

@<TRIPOS>MOLECULE
ZINC000616491533
 50 53 1 0 0
SMALL
USER_CHARGES


@<TRIPOS>ATOM
      1 C1        -12.4491    1.2943   59.7490 C.3     1  ZINC000616491533   -0.1700
      2 C2        -10.9723    0.9482   59.5491 C.3     1  ZINC000616491533    0.1400
      3 H3        -10.3511    1.7989   59.8294 H       1  ZINC000616491533    0.0800
      4 C4        -10.5997   -0.2801   60.4086 C.3     1  ZINC000616491533   -0.1200
      5 C5        -10.6843   -1.4441   59.3994 C.3     1  ZINC000616491533   -0.0700
      6 C6        -10.2022   -0.7890   58.0909 C.3     1  ZINC000616491533    0.0900
      7 N7        -10.7279    0.5924   58.1430 N.am    1  ZINC000616491533   -0.6100
      8 C8        -10.9485    1.3890   57.0786 C.2     1  ZINC000616491533    0.6100
      9 O9        -11.3879    2.5114   57.2398 O.2     1  ZINC000616491533   -0.5200
     10 C10       -10.6570    0.9000   55.7188 C.2     1  ZINC000616491533   -0.2400
     11 C11        -9.5117    1.1449   54.9878 C.2     1  ZINC000616491533    0.0700
     12 C12        -8.3269    1.9628   55.4327 C.3     1  ZINC000616491533    0.3400
     13 F13        -8.7248    3.2888   55.6347 F       1  ZINC000616491533   -0.1900
     14 F14        -7.8220    1.4403   56.6282 F       1  ZINC000616491533   -0.1600
     15 N15        -9.6483    0.5183   53.8050 N.pl3   1  ZINC000616491533   -0.2900
     16 C16        -8.7068    0.5138   52.7668 C.ar    1  ZINC000616491533    0.1300
     17 C17        -8.0482    1.6859   52.4198 C.ar    1  ZINC000616491533   -0.1000
     18 C18        -7.1210    1.6783   51.3963 C.ar    1  ZINC000616491533   -0.1000
     19 C19        -6.8486    0.5051   50.7169 C.ar    1  ZINC000616491533   -0.1000
     20 C20        -7.5029   -0.6637   51.0599 C.ar    1  ZINC000616491533   -0.1000
     21 C21        -8.4266   -0.6639   52.0868 C.ar    1  ZINC000616491533   -0.0900
     22 N22       -10.8892   -0.1283   53.7868 N.2     1  ZINC000616491533   -0.2600
     23 C23       -11.4952    0.0877   54.9219 C.2     1  ZINC000616491533    0.0700
     24 C24        -9.7554   -2.5781   59.8084 C.3     1  ZINC000616491533   -0.1400
     25 C25        -9.8988   -3.7333   58.8113 C.3     1  ZINC000616491533    0.0600
     26 O26       -11.2690   -4.1348   58.7481 O.3     1  ZINC000616491533   -0.3800
     27 C27       -12.1593   -3.1156   58.2886 C.3     1  ZINC000616491533    0.0600
     28 C28       -12.1192   -1.9318   59.2615 C.3     1  ZINC000616491533   -0.1500
     29 H29       -13.0645    0.4441   59.4551 H       1  ZINC000616491533    0.0600
     30 H30       -12.6288    1.5274   60.7985 H       1  ZINC000616491533    0.0600
     31 H31       -12.7060    2.1581   59.1358 H       1  ZINC000616491533    0.0800
     32 H32        -9.5878   -0.1832   60.8020 H       1  ZINC000616491533    0.0800
     33 H33       -11.3177   -0.4175   61.2171 H       1  ZINC000616491533    0.0900
     34 H34        -9.1131   -0.7779   58.0507 H       1  ZINC000616491533    0.0800
     35 H35       -10.6094   -1.3180   57.2291 H       1  ZINC000616491533    0.0800
     36 H36        -7.5531    1.9285   54.6658 H       1  ZINC000616491533    0.1400
     37 H37        -8.2610    2.6026   52.9496 H       1  ZINC000616491533    0.1300
     38 H38        -6.6084    2.5897   51.1260 H       1  ZINC000616491533    0.1400
     39 H39        -6.1237    0.5019   49.9163 H       1  ZINC000616491533    0.1300
     40 H40        -7.2881   -1.5785   50.5275 H       1  ZINC000616491533    0.1400
     41 H41        -8.9374   -1.5772   52.3543 H       1  ZINC000616491533    0.1300
     42 H42       -12.4699   -0.2842   55.2013 H       1  ZINC000616491533    0.2100
     43 H43        -8.7249   -2.2227   59.8079 H       1  ZINC000616491533    0.0800
     44 H44       -10.0213   -2.9242   60.8072 H       1  ZINC000616491533    0.0800
     45 H45        -9.5696   -3.4058   57.8251 H       1  ZINC000616491533    0.0500
     46 H46        -9.2878   -4.5745   59.1387 H       1  ZINC000616491533    0.1000
     47 H47       -11.8508   -2.7826   57.2977 H       1  ZINC000616491533    0.0500
     48 H48       -13.1732   -3.5128   58.2404 H       1  ZINC000616491533    0.1000
     49 H49       -12.4910   -2.2488   60.2359 H       1  ZINC000616491533    0.0800
     50 H50       -12.7428   -1.1244   58.8782 H       1  ZINC000616491533    0.0800
@<TRIPOS>BOND
     1     1     2    1
     2     1    29    1
     3     1    30    1
     4     1    31    1
     5     2     3    1
     6     2     7    1
     7     2     4    1
     8     4     5    1
     9     4    32    1
    10     4    33    1
    11     5    28    1
    12     5     6    1
    13     5    24    1
    14     6     7    1
    15     6    34    1
    16     6    35    1
    17     7     8   am
    18     8     9    2
    19     8    10    1
    20    10    23    1
    21    10    11    2
    22    11    12    1
    23    11    15    1
    24    12    13    1
    25    12    14    1
    26    12    36    1
    27    15    16    1
    28    15    22    1
    29    16    21   ar
    30    16    17   ar
    31    17    18   ar
    32    17    37    1
    33    18    19   ar
    34    18    38    1
    35    19    20   ar
    36    19    39    1
    37    20    21   ar
    38    20    40    1
    39    21    41    1
    40    22    23    2
    41    23    42    1
    42    24    25    1
    43    24    43    1
    44    24    44    1
    45    25    26    1
    46    25    45    1
    47    25    46    1
    48    26    27    1
    49    27    28    1
    50    27    47    1
    51    27    48    1
    52    28    49    1
    53    28    50    1
@<TRIPOS>SUBSTRUCTURE
     1 ZINC000616491533        1 TEMP              0 ****  ****    0 ROOT


##########                                Name:    ZINC001248546333
##########                DOCK_Rotatable_Bonds:                   6
##########                         Heavy_Atoms:                  27
##########                    Molecular_Weight:             378.397
##########                DOCK_Rotatable_Bonds:                   6
##########                       Formal_Charge:         3.94881e-07
##########                     HBond_Acceptors:                   8
##########                        HBond_Donors:                   1
##########                         Heavy_Atoms:                  27
##########                          Grid_Score:          -30.907404
##########                     Grid_vdw_energy:          -31.415716
##########                      Grid_es_energy:            0.508312
##########           Internal_energy_repulsive:           14.534253

@<TRIPOS>MOLECULE
ZINC001248546333
 48 50 1 0 0
SMALL
USER_CHARGES


@<TRIPOS>ATOM
      1 C1         -7.5146    3.5106   52.5406 C.3     1  ZINC001248546333   -0.1200
      2 C2         -7.6234    2.0670   52.1217 C.ar    1  ZINC001248546333   -0.0800
      3 C3         -6.5690    1.4574   51.4660 C.ar    1  ZINC001248546333   -0.1200
      4 C4         -6.6610    0.1324   51.0781 C.ar    1  ZINC001248546333   -0.1100
      5 C5         -7.8062   -0.5893   51.3439 C.ar    1  ZINC001248546333   -0.1100
      6 C6         -8.8733    0.0197   52.0055 C.ar    1  ZINC001248546333   -0.0600
      7 C7        -10.1034   -0.7478   52.2936 C.2     1  ZINC001248546333   -0.0600
      8 C8        -10.0001   -2.0501   52.4037 C.2     1  ZINC001248546333   -0.1700
      9 C9        -11.1703   -2.9537   52.6769 C.3     1  ZINC001248546333    0.1500
     10 N10       -12.3332   -2.1367   53.0523 N.am    1  ZINC001248546333   -0.6300
     11 C11       -13.1359   -2.4886   54.0762 C.2     1  ZINC001248546333    0.7200
     12 O12       -14.0913   -1.7947   54.3659 O.2     1  ZINC001248546333   -0.5800
     13 N13       -12.8795   -3.6097   54.7790 N.am    1  ZINC001248546333   -0.7500
     14 C14       -13.7520   -3.9923   55.8918 C.3     1  ZINC001248546333    0.2000
     15 C15       -13.0580   -3.7009   57.1974 C.2     1  ZINC001248546333    0.0700
     16 C16       -11.7425   -3.8802   57.4590 C.2     1  ZINC001248546333   -0.2000
     17 C17       -11.5097   -3.4894   58.7817 C.2     1  ZINC001248546333   -0.0200
     18 C18       -10.1809   -3.5221   59.4919 C.3     1  ZINC001248546333    0.5600
     19 F19        -9.3179   -2.5876   58.9097 F       1  ZINC001248546333   -0.1700
     20 F20       -10.3661   -3.2080   60.8424 F       1  ZINC001248546333   -0.1700
     21 F21        -9.6252   -4.8014   59.3827 F       1  ZINC001248546333   -0.1600
     22 N22       -12.6445   -3.0898   59.2957 N.2     1  ZINC001248546333   -0.2200
     23 N23       -13.6360   -3.2089   58.3131 N.pl3   1  ZINC001248546333   -0.3400
     24 C24       -15.0519   -2.8680   58.4718 C.3     1  ZINC001248546333    0.0900
     25 C25       -12.5862   -0.9180   52.2643 C.3     1  ZINC001248546333    0.1300
     26 C26       -11.3850    0.0163   52.4462 C.3     1  ZINC001248546333   -0.1000
     27 C27        -8.7724    1.3546   52.3983 C.ar    1  ZINC001248546333   -0.1100
     28 H28        -7.0906    3.5670   53.5432 H       1  ZINC001248546333    0.0700
     29 H29        -6.8692    4.0438   51.8426 H       1  ZINC001248546333    0.0700
     30 H30        -8.5054    3.9650   52.5390 H       1  ZINC001248546333    0.0700
     31 H31        -5.6703    2.0181   51.2555 H       1  ZINC001248546333    0.1200
     32 H32        -5.8346   -0.3376   50.5658 H       1  ZINC001248546333    0.1200
     33 H33        -7.8769   -1.6234   51.0403 H       1  ZINC001248546333    0.1200
     34 H34        -9.0234   -2.4973   52.2920 H       1  ZINC001248546333    0.1200
     35 H35       -11.4033   -3.5289   51.7809 H       1  ZINC001248546333    0.0800
     36 H36       -10.9234   -3.6327   53.4930 H       1  ZINC001248546333    0.0800
     37 H37       -12.1173   -4.1634   54.5478 H       1  ZINC001248546333    0.4000
     38 H38       -14.6798   -3.4226   55.8385 H       1  ZINC001248546333    0.1000
     39 H39       -13.9756   -5.0572   55.8289 H       1  ZINC001248546333    0.0900
     40 H40       -11.0032   -4.2586   56.7687 H       1  ZINC001248546333    0.1700
     41 H41       -15.2074   -1.8245   58.1980 H       1  ZINC001248546333    0.0900
     42 H42       -15.6540   -3.5069   57.8256 H       1  ZINC001248546333    0.1000
     43 H43       -15.3479   -3.0193   59.5098 H       1  ZINC001248546333    0.1000
     44 H44       -12.7004   -1.1768   51.2117 H       1  ZINC001248546333    0.0700
     45 H45       -13.4907   -0.4276   52.6242 H       1  ZINC001248546333    0.1000
     46 H46       -11.4264    0.4679   53.4374 H       1  ZINC001248546333    0.0800
     47 H47       -11.4229    0.8030   51.6928 H       1  ZINC001248546333    0.0900
     48 H48        -9.5948    1.8317   52.9107 H       1  ZINC001248546333    0.1200
@<TRIPOS>BOND
     1     1     2    1
     2     1    28    1
     3     1    29    1
     4     1    30    1
     5     2    27   ar
     6     2     3   ar
     7     3     4   ar
     8     3    31    1
     9     4     5   ar
    10     4    32    1
    11     5     6   ar
    12     5    33    1
    13     6     7    1
    14     6    27   ar
    15     7    26    1
    16     7     8    2
    17     8     9    1
    18     8    34    1
    19     9    10    1
    20     9    35    1
    21     9    36    1
    22    10    11   am
    23    10    25    1
    24    11    12    2
    25    11    13   am
    26    13    14    1
    27    13    37    1
    28    14    15    1
    29    14    38    1
    30    14    39    1
    31    15    23    1
    32    15    16    2
    33    16    17    1
    34    16    40    1
    35    17    18    1
    36    17    22    2
    37    18    19    1
    38    18    20    1
    39    18    21    1
    40    22    23    1
    41    23    24    1
    42    24    41    1
    43    24    42    1
    44    24    43    1
    45    25    26    1
    46    25    44    1
    47    25    45    1
    48    26    46    1
    49    26    47    1
    50    27    48    1
@<TRIPOS>SUBSTRUCTURE
     1 ZINC001248546333        1 TEMP              0 ****  ****    0 ROOT


##########                                Name:    ZINC000521663393
##########                DOCK_Rotatable_Bonds:                   5
##########                         Heavy_Atoms:                  27
##########                    Molecular_Weight:              386.49
##########                DOCK_Rotatable_Bonds:                   5
##########                       Formal_Charge:               -0.02
##########                     HBond_Acceptors:                   6
##########                        HBond_Donors:                   1
##########                         Heavy_Atoms:                  27
##########                          Grid_Score:          -30.905901
##########                     Grid_vdw_energy:          -30.650097
##########                      Grid_es_energy:           -0.255803
##########           Internal_energy_repulsive:           14.508204

@<TRIPOS>MOLECULE
ZINC000521663393
 50 53 1 0 0
SMALL
USER_CHARGES


@<TRIPOS>ATOM
      1 C1        -14.7620   -5.2813   55.9106 C.3     1  ZINC000521663393   -0.1500
      2 C2        -13.2866   -4.8766   55.9332 C.3     1  ZINC000521663393    0.0800
      3 H3        -12.7911   -5.1773   55.0101 H       1  ZINC000521663393    0.0900
      4 O4        -12.6211   -5.4411   57.0758 O.3     1  ZINC000521663393   -0.2900
      5 C5        -11.6662   -4.5745   57.5120 C.ar    1  ZINC000521663393    0.1400
      6 C6        -10.5596   -4.8017   58.3255 C.ar    1  ZINC000521663393   -0.1800
      7 C7         -9.7138   -3.7601   58.6562 C.ar    1  ZINC000521663393    0.1400
      8 F8         -8.6424   -3.9889   59.4467 F       1  ZINC000521663393   -0.1300
      9 C9         -9.9594   -2.4830   58.1806 C.ar    1  ZINC000521663393   -0.1800
     10 C10       -11.0550   -2.2520   57.3679 C.ar    1  ZINC000521663393   -0.0200
     11 C11       -11.8967   -3.2900   57.0351 C.ar    1  ZINC000521663393   -0.2000
     12 C12       -13.1395   -3.3538   56.1633 C.3     1  ZINC000521663393    0.1700
     13 H13       -14.0057   -2.9535   56.6900 H       1  ZINC000521663393    0.1200
     14 N14       -12.9276   -2.6479   54.8972 N.am    1  ZINC000521663393   -0.7200
     15 C15       -13.4584   -1.4230   54.7115 C.2     1  ZINC000521663393    0.5300
     16 O16       -14.1102   -0.9046   55.5932 O.2     1  ZINC000521663393   -0.5000
     17 C17       -13.2419   -0.6976   53.4085 C.3     1  ZINC000521663393    0.1200
     18 H18       -13.6592    0.3069   53.4781 H       1  ZINC000521663393    0.0700
     19 C19       -11.7649   -0.6093   53.1222 C.ar    1  ZINC000521663393   -0.0900
     20 C20       -11.0538    0.5146   53.4991 C.ar    1  ZINC000521663393   -0.0900
     21 C21        -9.6991    0.5956   53.2364 C.ar    1  ZINC000521663393   -0.1200
     22 C22        -9.0553   -0.4474   52.5973 C.ar    1  ZINC000521663393   -0.1100
     23 C23        -9.7663   -1.5718   52.2213 C.ar    1  ZINC000521663393   -0.1200
     24 C24       -11.1202   -1.6545   52.4877 C.ar    1  ZINC000521663393   -0.1100
     25 N25       -13.9080   -1.4304   52.3235 N.3     1  ZINC000521663393   -0.5300
     26 C26       -13.8847   -0.6600   51.0781 C.3     1  ZINC000521663393    0.0500
     27 C27       -14.1687   -1.5840   49.8889 C.3     1  ZINC000521663393   -0.0700
     28 S28       -15.8347   -2.2862   50.0883 S.3     1  ZINC000521663393   -0.2700
     29 C29       -15.7668   -2.9383   51.7850 C.3     1  ZINC000521663393   -0.0700
     30 C30       -15.2628   -1.8279   52.7131 C.3     1  ZINC000521663393    0.0600
     31 H31       -15.2615   -4.7872   55.0772 H       1  ZINC000521663393    0.0800
     32 H32       -14.8405   -6.3619   55.7922 H       1  ZINC000521663393    0.0800
     33 H33       -15.2350   -4.9829   56.8462 H       1  ZINC000521663393    0.0700
     34 H34       -10.3617   -5.7953   58.6998 H       1  ZINC000521663393    0.1400
     35 H35        -9.2984   -1.6703   58.4433 H       1  ZINC000521663393    0.1400
     36 H36       -11.2502   -1.2576   56.9946 H       1  ZINC000521663393    0.1300
     37 H37       -12.4053   -3.0620   54.1925 H       1  ZINC000521663393    0.4000
     38 H38       -11.5567    1.3295   53.9984 H       1  ZINC000521663393    0.1300
     39 H39        -9.1436    1.4740   53.5302 H       1  ZINC000521663393    0.1300
     40 H40        -7.9970   -0.3839   52.3916 H       1  ZINC000521663393    0.1200
     41 H41        -9.2634   -2.3866   51.7216 H       1  ZINC000521663393    0.1300
     42 H42       -11.6757   -2.5330   52.1939 H       1  ZINC000521663393    0.1200
     43 H43       -14.6450    0.1199   51.1204 H       1  ZINC000521663393    0.0500
     44 H44       -12.9036   -0.2014   50.9542 H       1  ZINC000521663393    0.1000
     45 H45       -14.1205   -1.0130   48.9618 H       1  ZINC000521663393    0.1100
     46 H46       -13.4327   -2.3878   49.8659 H       1  ZINC000521663393    0.0900
     47 H47       -16.7630   -3.2523   52.0968 H       1  ZINC000521663393    0.1100
     48 H48       -15.0834   -3.7866   51.8242 H       1  ZINC000521663393    0.1000
     49 H49       -15.2522   -2.1916   53.7406 H       1  ZINC000521663393    0.0800
     50 H50       -15.9274   -0.9669   52.6418 H       1  ZINC000521663393    0.0500
@<TRIPOS>BOND
     1     1     2    1
     2     1    31    1
     3     1    32    1
     4     1    33    1
     5     2     3    1
     6     2    12    1
     7     2     4    1
     8     4     5    1
     9     5    11   ar
    10     5     6   ar
    11     6     7   ar
    12     6    34    1
    13     7     8    1
    14     7     9   ar
    15     9    10   ar
    16     9    35    1
    17    10    11   ar
    18    10    36    1
    19    11    12    1
    20    12    13    1
    21    12    14    1
    22    14    15   am
    23    14    37    1
    24    15    16    2
    25    15    17    1
    26    17    18    1
    27    17    19    1
    28    17    25    1
    29    19    24   ar
    30    19    20   ar
    31    20    21   ar
    32    20    38    1
    33    21    22   ar
    34    21    39    1
    35    22    23   ar
    36    22    40    1
    37    23    24   ar
    38    23    41    1
    39    24    42    1
    40    25    30    1
    41    25    26    1
    42    26    27    1
    43    26    43    1
    44    26    44    1
    45    27    28    1
    46    27    45    1
    47    27    46    1
    48    28    29    1
    49    29    30    1
    50    29    47    1
    51    29    48    1
    52    30    49    1
    53    30    50    1
@<TRIPOS>SUBSTRUCTURE
     1 ZINC000521663393        1 TEMP              0 ****  ****    0 ROOT


##########                                Name:    ZINC000530457945
##########                DOCK_Rotatable_Bonds:                   4
##########                         Heavy_Atoms:                  25
##########                    Molecular_Weight:             355.827
##########                DOCK_Rotatable_Bonds:                   4
##########                       Formal_Charge:           0.0199997
##########                     HBond_Acceptors:                   7
##########                        HBond_Donors:                   1
##########                         Heavy_Atoms:                  25
##########                          Grid_Score:          -30.876669
##########                     Grid_vdw_energy:          -30.967306
##########                      Grid_es_energy:            0.090637
##########           Internal_energy_repulsive:           29.523870

@<TRIPOS>MOLECULE
ZINC000530457945
 43 46 1 0 0
SMALL
USER_CHARGES


@<TRIPOS>ATOM
      1 C1        -12.2512   -1.7301   56.9515 C.3     1  ZINC000530457945   -0.1700
      2 C2        -11.9627   -2.5978   58.1781 C.3     1  ZINC000530457945    0.0900
      3 H3        -12.5658   -2.2602   59.0210 H       1  ZINC000530457945    0.1100
      4 C4        -10.4644   -2.5159   58.5384 C.3     1  ZINC000530457945   -0.1200
      5 H5         -9.8740   -2.2277   57.6686 H       1  ZINC000530457945    0.1100
      6 C6        -10.2416   -1.5512   59.6745 C.2     1  ZINC000530457945    0.5300
      7 O7         -9.6249   -0.5241   59.4858 O.2     1  ZINC000530457945   -0.4700
      8 N8        -10.7278   -1.8299   60.9003 N.am    1  ZINC000530457945   -0.6200
      9 C9        -10.5199   -0.9366   61.9536 C.2     1  ZINC000530457945    0.4800
     10 N10        -9.6046   -1.0672   62.8924 N.2     1  ZINC000530457945   -0.3000
     11 N11        -9.7329    0.0359   63.7486 N.pl3   1  ZINC000530457945   -0.2800
     12 C12        -9.0680    0.4233   64.8688 C.2     1  ZINC000530457945    0.1400
     13 C13        -9.4100    1.5637   65.5122 C.2     1  ZINC000530457945   -0.0800
     14 Cl14       -8.5493    2.0426   66.9417 Cl      1  ZINC000530457945   -0.0200
     15 C15       -10.4580    2.3604   65.0267 C.2     1  ZINC000530457945   -0.0500
     16 C16       -11.1288    1.9788   63.9041 C.2     1  ZINC000530457945   -0.0900
     17 C17       -10.7574    0.7900   63.2514 C.2     1  ZINC000530457945    0.3000
     18 N18       -11.2112    0.1796   62.1610 N.2     1  ZINC000530457945   -0.5500
     19 C19       -10.1294   -3.9672   58.9724 C.3     1  ZINC000530457945   -0.1200
     20 C20       -11.0171   -4.7945   58.0095 C.3     1  ZINC000530457945    0.0400
     21 N21       -12.2666   -4.0088   57.8772 N.3     1  ZINC000530457945   -0.4900
     22 C22       -12.8082   -4.1419   56.5966 C.ar    1  ZINC000530457945    0.1000
     23 C23       -11.9799   -4.0989   55.4824 C.ar    1  ZINC000530457945   -0.1600
     24 C24       -12.5187   -4.2314   54.2177 C.ar    1  ZINC000530457945   -0.1100
     25 C25       -13.8814   -4.4062   54.0599 C.ar    1  ZINC000530457945   -0.1300
     26 C26       -14.7089   -4.4495   55.1669 C.ar    1  ZINC000530457945   -0.1100
     27 C27       -14.1759   -4.3235   56.4347 C.ar    1  ZINC000530457945   -0.1000
     28 H28       -13.2800   -1.8888   56.6280 H       1  ZINC000530457945    0.0700
     29 H29       -12.1087   -0.6802   57.2074 H       1  ZINC000530457945    0.0600
     30 H30       -11.5706   -2.0032   56.1450 H       1  ZINC000530457945    0.0600
     31 H31       -11.2221   -2.6508   61.0509 H       1  ZINC000530457945    0.4300
     32 H32        -8.2601   -0.1842   65.2490 H       1  ZINC000530457945    0.1800
     33 H33       -10.7315    3.2703   65.5400 H       1  ZINC000530457945    0.1600
     34 H34       -11.9377    2.5826   63.5200 H       1  ZINC000530457945    0.1700
     35 H35        -9.0735   -4.1876   58.8163 H       1  ZINC000530457945    0.0900
     36 H36       -10.4134   -4.1396   60.0105 H       1  ZINC000530457945    0.0900
     37 H37       -10.5295   -4.9003   57.0404 H       1  ZINC000530457945    0.0700
     38 H38       -11.2301   -5.7741   58.4371 H       1  ZINC000530457945    0.0900
     39 H39       -10.9157   -3.9617   55.6049 H       1  ZINC000530457945    0.1200
     40 H40       -11.8752   -4.1980   53.3510 H       1  ZINC000530457945    0.1200
     41 H41       -14.3003   -4.5088   53.0697 H       1  ZINC000530457945    0.1200
     42 H42       -15.7727   -4.5861   55.0402 H       1  ZINC000530457945    0.1300
     43 H43       -14.8227   -4.3576   57.2989 H       1  ZINC000530457945    0.1300
@<TRIPOS>BOND
     1     1     2    1
     2     1    28    1
     3     1    29    1
     4     1    30    1
     5     2     3    1
     6     2    21    1
     7     2     4    1
     8     4     5    1
     9     4     6    1
    10     4    19    1
    11     6     7    2
    12     6     8   am
    13     8     9    1
    14     8    31    1
    15     9    18    1
    16     9    10    2
    17    10    11    1
    18    11    17    1
    19    11    12    1
    20    12    13    2
    21    12    32    1
    22    13    14    1
    23    13    15    1
    24    15    16    2
    25    15    33    1
    26    16    17    1
    27    16    34    1
    28    17    18    2
    29    19    20    1
    30    19    35    1
    31    19    36    1
    32    20    21    1
    33    20    37    1
    34    20    38    1
    35    21    22    1
    36    22    27   ar
    37    22    23   ar
    38    23    24   ar
    39    23    39    1
    40    24    25   ar
    41    24    40    1
    42    25    26   ar
    43    25    41    1
    44    26    27   ar
    45    26    42    1
    46    27    43    1
@<TRIPOS>SUBSTRUCTURE
     1 ZINC000530457945        1 TEMP              0 ****  ****    0 ROOT


##########                                Name:    ZINC001282645012
##########                DOCK_Rotatable_Bonds:                   9
##########                         Heavy_Atoms:                  27
##########                    Molecular_Weight:             372.511
##########                DOCK_Rotatable_Bonds:                   9
##########                       Formal_Charge:          -0.0200004
##########                     HBond_Acceptors:                   6
##########                        HBond_Donors:                   1
##########                         Heavy_Atoms:                  27
##########                          Grid_Score:          -30.869469
##########                     Grid_vdw_energy:          -29.590889
##########                      Grid_es_energy:           -1.278579
##########           Internal_energy_repulsive:           30.400089

@<TRIPOS>MOLECULE
ZINC001282645012
 59 61 1 0 0
SMALL
USER_CHARGES


@<TRIPOS>ATOM
      1 C1        -15.5528   -4.3483   58.3789 C.2     1  ZINC001282645012   -0.1900
      2 C2        -15.1554   -4.0066   57.1783 C.2     1  ZINC001282645012   -0.1300
      3 C3        -13.9409   -4.6611   56.5719 C.3     1  ZINC001282645012   -0.0500
      4 C4        -14.1671   -6.1717   56.4819 C.3     1  ZINC001282645012   -0.1500
      5 C5        -13.7038   -4.0964   55.1698 C.3     1  ZINC001282645012   -0.1400
      6 C6        -12.7371   -4.3840   57.4352 C.2     1  ZINC001282645012    0.5500
      7 O7        -12.0092   -5.2941   57.7709 O.2     1  ZINC001282645012   -0.5300
      8 N8        -12.4695   -3.1247   57.8342 N.am    1  ZINC001282645012   -0.6300
      9 C9        -13.1926   -1.8350   57.5674 C.3     1  ZINC001282645012    0.1200
     10 H10       -14.0833   -1.9096   56.9437 H       1  ZINC001282645012    0.1300
     11 C11       -12.0393   -0.9598   56.9907 C.3     1  ZINC001282645012   -0.1300
     12 C12       -10.7885   -1.4662   57.7503 C.3     1  ZINC001282645012   -0.1300
     13 C13       -11.3601   -2.5795   58.6880 C.3     1  ZINC001282645012    0.1200
     14 H14       -10.6350   -3.3096   59.0476 H       1  ZINC001282645012    0.1200
     15 C15       -12.1475   -1.8132   59.7932 C.3     1  ZINC001282645012    0.1300
     16 H16       -12.4336   -2.4888   60.5992 H       1  ZINC001282645012    0.1000
     17 N17       -11.3525   -0.6984   60.3142 N.am    1  ZINC001282645012   -0.7100
     18 C18       -11.7284   -0.0749   61.4485 C.2     1  ZINC001282645012    0.5100
     19 O19       -12.7255   -0.4358   62.0370 O.2     1  ZINC001282645012   -0.5100
     20 C20       -10.9096    1.0707   61.9854 C.3     1  ZINC001282645012    0.1200
     21 H21       -10.2042    1.4017   61.2232 H       1  ZINC001282645012    0.1300
     22 C22       -11.8367    2.2288   62.3597 C.3     1  ZINC001282645012   -0.1100
     23 C23       -12.6220    2.6732   61.1241 C.3     1  ZINC001282645012   -0.1000
     24 C24       -13.7352    3.6344   61.5458 C.3     1  ZINC001282645012   -0.1500
     25 C25       -11.6798    3.3809   60.1483 C.3     1  ZINC001282645012   -0.1500
     26 N26       -10.1739    0.6305   63.1734 N.pl3   1  ZINC001282645012   -0.4500
     27 C27        -9.6403   -0.6123   63.3840 C.2     1  ZINC001282645012   -0.0600
     28 C28        -9.0539   -0.5841   64.5960 C.2     1  ZINC001282645012   -0.0200
     29 N29        -9.2249    0.6422   65.1114 N.2     1  ZINC001282645012   -0.4900
     30 C30        -9.8906    1.3767   64.2626 C.2     1  ZINC001282645012    0.1900
     31 C31       -13.4292   -1.3196   59.0190 C.3     1  ZINC001282645012   -0.1400
     32 H32       -15.0101   -5.0990   58.9341 H       1  ZINC001282645012    0.1000
     33 H33       -16.4205   -3.8760   58.8152 H       1  ZINC001282645012    0.1000
     34 H34       -15.6980   -3.2559   56.6231 H       1  ZINC001282645012    0.1100
     35 H35       -15.0377   -6.3721   55.8574 H       1  ZINC001282645012    0.0700
     36 H36       -13.2886   -6.6450   56.0432 H       1  ZINC001282645012    0.0700
     37 H37       -14.3359   -6.5740   57.4806 H       1  ZINC001282645012    0.0600
     38 H38       -13.5428   -3.0203   55.2340 H       1  ZINC001282645012    0.0600
     39 H39       -12.8254   -4.5699   54.7312 H       1  ZINC001282645012    0.0700
     40 H40       -14.5744   -4.2969   54.5454 H       1  ZINC001282645012    0.0700
     41 H41       -11.9307   -1.1254   55.9188 H       1  ZINC001282645012    0.0800
     42 H42       -12.2155    0.0950   57.2014 H       1  ZINC001282645012    0.0800
     43 H43       -10.0597   -1.8830   57.0551 H       1  ZINC001282645012    0.0700
     44 H44       -10.3445   -0.6626   58.3376 H       1  ZINC001282645012    0.0800
     45 H45       -10.5557   -0.4090   59.8429 H       1  ZINC001282645012    0.4000
     46 H46       -12.5313    1.9025   63.1338 H       1  ZINC001282645012    0.0900
     47 H47       -11.2431    3.0635   62.7325 H       1  ZINC001282645012    0.0800
     48 H48       -13.0598    1.8010   60.6386 H       1  ZINC001282645012    0.0700
     49 H49       -13.2975    4.5067   62.0313 H       1  ZINC001282645012    0.0600
     50 H50       -14.2947    3.9510   60.6656 H       1  ZINC001282645012    0.0600
     51 H51       -14.4065    3.1303   62.2411 H       1  ZINC001282645012    0.0500
     52 H52       -10.9371    2.6721   59.7818 H       1  ZINC001282645012    0.0600
     53 H53       -12.2537    3.7724   59.3084 H       1  ZINC001282645012    0.0600
     54 H54       -11.1772    4.2020   60.6593 H       1  ZINC001282645012    0.0600
     55 H55        -9.6816   -1.4537   62.7082 H       1  ZINC001282645012    0.1700
     56 H56        -8.5366   -1.4052   65.0700 H       1  ZINC001282645012    0.1700
     57 H57       -10.1739    2.4084   64.4098 H       1  ZINC001282645012    0.2000
     58 H58       -13.4799   -0.2308   59.0151 H       1  ZINC001282645012    0.0900
     59 H59       -14.3311   -1.7453   59.4587 H       1  ZINC001282645012    0.0900
@<TRIPOS>BOND
     1     1     2    2
     2     1    32    1
     3     1    33    1
     4     2     3    1
     5     2    34    1
     6     3     4    1
     7     3     5    1
     8     3     6    1
     9     4    35    1
    10     4    36    1
    11     4    37    1
    12     5    38    1
    13     5    39    1
    14     5    40    1
    15     6     7    2
    16     6     8   am
    17     8    13    1
    18     8     9    1
    19     9    10    1
    20     9    31    1
    21     9    11    1
    22    11    12    1
    23    11    41    1
    24    11    42    1
    25    12    13    1
    26    12    43    1
    27    12    44    1
    28    13    14    1
    29    13    15    1
    30    15    16    1
    31    15    17    1
    32    15    31    1
    33    17    18   am
    34    17    45    1
    35    18    19    2
    36    18    20    1
    37    20    21    1
    38    20    22    1
    39    20    26    1
    40    22    23    1
    41    22    46    1
    42    22    47    1
    43    23    24    1
    44    23    25    1
    45    23    48    1
    46    24    49    1
    47    24    50    1
    48    24    51    1
    49    25    52    1
    50    25    53    1
    51    25    54    1
    52    26    30    1
    53    26    27    1
    54    27    28    2
    55    27    55    1
    56    28    29    1
    57    28    56    1
    58    29    30    2
    59    30    57    1
    60    31    58    1
    61    31    59    1
@<TRIPOS>SUBSTRUCTURE
     1 ZINC001282645012        1 TEMP              0 ****  ****    0 ROOT


##########                                Name:    ZINC001199210165
##########                DOCK_Rotatable_Bonds:                   5
##########                         Heavy_Atoms:                  23
##########                    Molecular_Weight:             375.225
##########                DOCK_Rotatable_Bonds:                   5
##########                       Formal_Charge:         -0.00999999
##########                     HBond_Acceptors:                   6
##########                        HBond_Donors:                   2
##########                         Heavy_Atoms:                  23
##########                          Grid_Score:          -30.839897
##########                     Grid_vdw_energy:          -30.408749
##########                      Grid_es_energy:           -0.431148
##########           Internal_energy_repulsive:           16.817995

@<TRIPOS>MOLECULE
ZINC001199210165
 38 40 1 0 0
SMALL
USER_CHARGES


@<TRIPOS>ATOM
      1 C1        -10.9179   -2.6772   52.9371 C.3     1  ZINC001199210165   -0.1700
      2 C2        -12.4283   -2.4529   52.8401 C.3     1  ZINC001199210165    0.0800
      3 C3        -12.7803   -1.9505   51.4385 C.3     1  ZINC001199210165   -0.1500
      4 O4        -13.1097   -3.6840   53.0898 O.3     1  ZINC001199210165   -0.3000
      5 C5        -13.2067   -4.0830   54.3830 C.ar    1  ZINC001199210165    0.3300
      6 C6        -12.6708   -3.2892   55.3882 C.ar    1  ZINC001199210165   -0.1300
      7 C7        -12.7786   -3.7133   56.7142 C.ar    1  ZINC001199210165   -0.0600
      8 C8        -12.2228   -2.9000   57.8204 C.2     1  ZINC001199210165    0.5700
      9 O9        -11.4134   -2.0249   57.5840 O.2     1  ZINC001199210165   -0.4900
     10 N10       -12.6147   -3.1307   59.0891 N.am    1  ZINC001199210165   -0.6600
     11 C11       -12.0901   -2.3631   60.1333 C.ar    1  ZINC001199210165    0.2000
     12 C12       -12.8783   -1.3801   60.7338 C.ar    1  ZINC001199210165   -0.1500
     13 C13       -12.3838   -0.6223   61.7535 C.ar    1  ZINC001199210165   -0.0200
     14 C14       -11.0752   -0.8289   62.2046 C.ar    1  ZINC001199210165   -0.1700
     15 C15       -10.2543   -0.2136   63.2436 C.2     1  ZINC001199210165    0.0900
     16 Br16      -10.7840    1.1865   64.3991 Br      1  ZINC001199210165    0.0600
     17 N17        -9.0918   -0.8018   63.2328 N.2     1  ZINC001199210165   -0.2100
     18 N18        -9.0625   -1.7903   62.2438 N.pl3   1  ZINC001199210165   -0.4900
     19 C19       -10.2741   -1.8193   61.6030 C.ar    1  ZINC001199210165    0.1500
     20 C20       -10.7963   -2.5874   60.5669 C.ar    1  ZINC001199210165   -0.1700
     21 C21       -13.4263   -4.9273   56.9699 C.ar    1  ZINC001199210165   -0.1900
     22 C22       -13.9309   -5.6555   55.9117 C.ar    1  ZINC001199210165    0.1400
     23 N23       -13.8152   -5.2206   54.6720 N.ar    1  ZINC001199210165   -0.5200
     24 H24       -10.6124   -3.4180   52.1981 H       1  ZINC001199210165    0.0600
     25 H25       -10.3982   -1.7383   52.7466 H       1  ZINC001199210165    0.0700
     26 H26       -10.6671   -3.0352   53.9355 H       1  ZINC001199210165    0.0600
     27 H27       -12.7338   -1.7122   53.5790 H       1  ZINC001199210165    0.0900
     28 H28       -12.4748   -2.6912   50.6995 H       1  ZINC001199210165    0.0700
     29 H29       -13.8564   -1.7906   51.3694 H       1  ZINC001199210165    0.0600
     30 H30       -12.2606   -1.0115   51.2480 H       1  ZINC001199210165    0.0800
     31 H31       -12.1781   -2.3586   55.1482 H       1  ZINC001199210165    0.1600
     32 H32       -13.2608   -3.8292   59.2778 H       1  ZINC001199210165    0.4100
     33 H33       -13.8884   -1.2182   60.3876 H       1  ZINC001199210165    0.1500
     34 H34       -13.0006    0.1364   62.2122 H       1  ZINC001199210165    0.1400
     35 H35        -8.3061   -2.3636   62.0435 H       1  ZINC001199210165    0.4500
     36 H36       -10.1930   -3.3528   60.1017 H       1  ZINC001199210165    0.1400
     37 H37       -13.5296   -5.2896   57.9820 H       1  ZINC001199210165    0.1400
     38 H38       -14.4316   -6.5933   56.1020 H       1  ZINC001199210165    0.1700
@<TRIPOS>BOND
     1     1     2    1
     2     1    24    1
     3     1    25    1
     4     1    26    1
     5     2     3    1
     6     2     4    1
     7     2    27    1
     8     3    28    1
     9     3    29    1
    10     3    30    1
    11     4     5    1
    12     5    23   ar
    13     5     6   ar
    14     6     7   ar
    15     6    31    1
    16     7     8    1
    17     7    21   ar
    18     8     9    2
    19     8    10   am
    20    10    11    1
    21    10    32    1
    22    11    20   ar
    23    11    12   ar
    24    12    13   ar
    25    12    33    1
    26    13    14   ar
    27    13    34    1
    28    14    19   ar
    29    14    15    1
    30    15    16    1
    31    15    17    2
    32    17    18    1
    33    18    19    1
    34    18    35    1
    35    19    20   ar
    36    20    36    1
    37    21    22   ar
    38    21    37    1
    39    22    23   ar
    40    22    38    1
@<TRIPOS>SUBSTRUCTURE
     1 ZINC001199210165        1 TEMP              0 ****  ****    0 ROOT


##########                                Name:    ZINC000077537368
##########                DOCK_Rotatable_Bonds:                   5
##########                         Heavy_Atoms:                  27
##########                    Molecular_Weight:             365.478
##########                DOCK_Rotatable_Bonds:                   5
##########                       Formal_Charge:          -0.0400007
##########                     HBond_Acceptors:                   6
##########                        HBond_Donors:                   0
##########                         Heavy_Atoms:                  27
##########                          Grid_Score:          -30.837006
##########                     Grid_vdw_energy:          -31.581079
##########                      Grid_es_energy:            0.744073
##########           Internal_energy_repulsive:           11.632795

@<TRIPOS>MOLECULE
ZINC000077537368
 54 56 1 0 0
SMALL
USER_CHARGES


@<TRIPOS>ATOM
      1 C1        -11.2588   -3.6380   52.6772 C.3     1  ZINC000077537368    0.0800
      2 N2        -12.0272   -2.4452   52.3126 N.pl3   1  ZINC000077537368   -0.2600
      3 N3        -12.9483   -2.4029   51.4184 N.2     1  ZINC000077537368   -0.2700
      4 C4        -13.4499   -1.1981   51.3208 C.2     1  ZINC000077537368    0.0400
      5 C5        -14.5470   -0.7672   50.3818 C.3     1  ZINC000077537368    0.0200
      6 C6        -13.9327   -0.2932   49.0631 C.3     1  ZINC000077537368   -0.1400
      7 C7        -15.4819   -1.9482   50.1135 C.3     1  ZINC000077537368   -0.1400
      8 C8        -15.3403    0.3775   51.0154 C.3     1  ZINC000077537368   -0.1400
      9 C9        -12.7884   -0.3828   52.2419 C.2     1  ZINC000077537368   -0.2000
     10 C10       -11.8776   -1.2098   52.8759 C.2     1  ZINC000077537368   -0.0400
     11 C11       -10.9313   -0.8319   53.9377 C.2     1  ZINC000077537368    0.5900
     12 O12        -9.7908   -0.5197   53.6529 O.2     1  ZINC000077537368   -0.5400
     13 N13       -11.3284   -0.8320   55.2256 N.am    1  ZINC000077537368   -0.6000
     14 C14       -12.7011   -1.2121   55.5923 C.3     1  ZINC000077537368    0.0800
     15 C15       -12.6340   -2.2767   56.6925 C.3     1  ZINC000077537368    0.0400
     16 N16       -11.8099   -1.7786   57.8019 N.3     1  ZINC000077537368   -0.5300
     17 C17       -11.8603   -2.6958   58.9482 C.3     1  ZINC000077537368    0.0900
     18 C18       -11.2710   -2.0195   60.1591 C.ar    1  ZINC000077537368   -0.0500
     19 C19       -11.9601   -0.9908   60.7769 C.ar    1  ZINC000077537368   -0.1200
     20 C20       -11.4264   -0.3672   61.8856 C.ar    1  ZINC000077537368   -0.0700
     21 C21       -10.1880   -0.7763   62.3842 C.ar    1  ZINC000077537368   -0.0300
     22 C22        -9.6281   -0.1337   63.5350 C.1     1  ZINC000077537368    0.2500
     23 N23        -9.1839    0.3761   64.4478 N.1     1  ZINC000077537368   -0.4100
     24 C24        -9.4983   -1.8153   61.7561 C.ar    1  ZINC000077537368   -0.0700
     25 C25       -10.0461   -2.4338   60.6514 C.ar    1  ZINC000077537368   -0.1000
     26 C26       -10.4240   -1.5464   57.3739 C.3     1  ZINC000077537368    0.0400
     27 C27       -10.3988   -0.4578   56.3022 C.3     1  ZINC000077537368    0.1200
     28 H28       -11.7182   -4.1158   53.5426 H       1  ZINC000077537368    0.0800
     29 H29       -11.2504   -4.3350   51.8393 H       1  ZINC000077537368    0.1000
     30 H30       -10.2360   -3.3508   52.9211 H       1  ZINC000077537368    0.1100
     31 H31       -13.3675   -1.1087   48.6118 H       1  ZINC000077537368    0.0600
     32 H32       -14.7262    0.0185   48.3840 H       1  ZINC000077537368    0.0600
     33 H33       -13.2667    0.5482   49.2543 H       1  ZINC000077537368    0.0600
     34 H34       -15.9195   -2.2859   51.0530 H       1  ZINC000077537368    0.0600
     35 H35       -16.2754   -1.6366   49.4343 H       1  ZINC000077537368    0.0600
     36 H36       -14.9167   -2.7637   49.6622 H       1  ZINC000077537368    0.0600
     37 H37       -14.6743    1.2189   51.2065 H       1  ZINC000077537368    0.0600
     38 H38       -16.1338    0.6892   50.3362 H       1  ZINC000077537368    0.0600
     39 H39       -15.7780    0.0398   51.9548 H       1  ZINC000077537368    0.0600
     40 H40       -12.9549    0.6688   52.4235 H       1  ZINC000077537368    0.1700
     41 H41       -13.2370   -0.3376   55.9613 H       1  ZINC000077537368    0.0800
     42 H42       -13.2138   -1.6184   54.7205 H       1  ZINC000077537368    0.1200
     43 H43       -13.6399   -2.4902   57.0539 H       1  ZINC000077537368    0.0900
     44 H44       -12.1904   -3.1877   56.2905 H       1  ZINC000077537368    0.0400
     45 H45       -12.8963   -2.9667   59.1516 H       1  ZINC000077537368    0.0900
     46 H46       -11.2878   -3.5948   58.7196 H       1  ZINC000077537368    0.0500
     47 H47       -12.9179   -0.6753   60.3901 H       1  ZINC000077537368    0.1300
     48 H48       -11.9649    0.4361   62.3664 H       1  ZINC000077537368    0.1300
     49 H49        -8.5401   -2.1367   62.1367 H       1  ZINC000077537368    0.1300
     50 H50        -9.5140   -3.2378   60.1648 H       1  ZINC000077537368    0.1400
     51 H51        -9.8272   -1.2303   58.2295 H       1  ZINC000077537368    0.1000
     52 H52       -10.0113   -2.4675   56.9624 H       1  ZINC000077537368    0.0400
     53 H53        -9.3901   -0.3627   55.9005 H       1  ZINC000077537368    0.1000
     54 H54       -10.7139    0.4910   56.7366 H       1  ZINC000077537368    0.0800
@<TRIPOS>BOND
     1     1     2    1
     2     1    28    1
     3     1    29    1
     4     1    30    1
     5     2    10    1
     6     2     3    1
     7     3     4    2
     8     4     5    1
     9     4     9    1
    10     5     6    1
    11     5     7    1
    12     5     8    1
    13     6    31    1
    14     6    32    1
    15     6    33    1
    16     7    34    1
    17     7    35    1
    18     7    36    1
    19     8    37    1
    20     8    38    1
    21     8    39    1
    22     9    10    2
    23     9    40    1
    24    10    11    1
    25    11    12    2
    26    11    13   am
    27    13    27    1
    28    13    14    1
    29    14    15    1
    30    14    41    1
    31    14    42    1
    32    15    16    1
    33    15    43    1
    34    15    44    1
    35    16    17    1
    36    16    26    1
    37    17    18    1
    38    17    45    1
    39    17    46    1
    40    18    25   ar
    41    18    19   ar
    42    19    20   ar
    43    19    47    1
    44    20    21   ar
    45    20    48    1
    46    21    22    1
    47    21    24   ar
    48    22    23    3
    49    24    25   ar
    50    24    49    1
    51    25    50    1
    52    26    27    1
    53    26    51    1
    54    26    52    1
    55    27    53    1
    56    27    54    1
@<TRIPOS>SUBSTRUCTURE
     1 ZINC000077537368        1 TEMP              0 ****  ****    0 ROOT


##########                                Name:    ZINC001009984555
##########                DOCK_Rotatable_Bonds:                   7
##########                         Heavy_Atoms:                  23
##########                    Molecular_Weight:             338.446
##########                DOCK_Rotatable_Bonds:                   7
##########                       Formal_Charge:           0.0400002
##########                     HBond_Acceptors:                   6
##########                        HBond_Donors:                   1
##########                         Heavy_Atoms:                  23
##########                          Grid_Score:          -30.828957
##########                     Grid_vdw_energy:          -30.555666
##########                      Grid_es_energy:           -0.273291
##########           Internal_energy_repulsive:           11.102416

@<TRIPOS>MOLECULE
ZINC001009984555
 46 47 1 0 0
SMALL
USER_CHARGES


@<TRIPOS>ATOM
      1 C1        -12.5109   -1.6471   51.4658 C.3     1  ZINC001009984555   -0.1400
      2 S2        -11.1042   -2.0084   52.5526 S.3     1  ZINC001009984555   -0.1800
      3 C3        -11.2558   -3.7936   52.8365 C.3     1  ZINC001009984555   -0.1300
      4 C4        -12.5146   -4.0732   53.6163 C.2     1  ZINC001009984555    0.5500
      5 O5        -13.5318   -4.3854   53.0342 O.2     1  ZINC001009984555   -0.5100
      6 N6        -12.5102   -3.9763   54.9606 N.am    1  ZINC001009984555   -0.6100
      7 C7        -11.3516   -3.6003   55.7910 C.3     1  ZINC001009984555    0.1000
      8 C8        -11.9658   -3.0382   57.0974 C.3     1  ZINC001009984555   -0.1100
      9 H9        -12.2769   -2.0016   56.9684 H       1  ZINC001009984555    0.1000
     10 C10       -10.9871   -3.1727   58.2657 C.3     1  ZINC001009984555    0.1300
     11 N11       -11.2873   -2.1531   59.2740 N.am    1  ZINC001009984555   -0.7300
     12 C12       -11.0694   -2.4110   60.5788 C.2     1  ZINC001009984555    0.5600
     13 O13       -10.6226   -3.4891   60.9189 O.2     1  ZINC001009984555   -0.5200
     14 C14       -11.3739   -1.3827   61.5966 C.ar    1  ZINC001009984555   -0.1200
     15 C15       -10.3559   -0.5702   62.0978 C.ar    1  ZINC001009984555   -0.0900
     16 C16       -10.6454    0.3880   63.0476 C.ar    1  ZINC001009984555   -0.1000
     17 C17       -11.9413    0.5450   63.5042 C.ar    1  ZINC001009984555   -0.1200
     18 C18       -12.9577   -0.2580   63.0113 C.ar    1  ZINC001009984555    0.0900
     19 F19       -14.2215   -0.0993   63.4618 F       1  ZINC001009984555   -0.1300
     20 C20       -12.6814   -1.2168   62.0555 C.ar    1  ZINC001009984555   -0.0500
     21 C21       -13.7867   -2.0898   61.5196 C.3     1  ZINC001009984555   -0.1200
     22 C22       -13.1934   -3.9675   57.2894 C.3     1  ZINC001009984555   -0.1200
     23 C23       -13.6616   -4.2218   55.8412 C.3     1  ZINC001009984555    0.1400
     24 H24       -13.9901   -5.2556   55.7339 H       1  ZINC001009984555    0.0800
     25 C25       -14.8092   -3.2725   55.4911 C.3     1  ZINC001009984555   -0.1700
     26 H26       -13.4388   -1.9135   51.9718 H       1  ZINC001009984555    0.0800
     27 H27       -12.5205   -0.5841   51.2252 H       1  ZINC001009984555    0.1100
     28 H28       -12.4186   -2.2266   50.5473 H       1  ZINC001009984555    0.0800
     29 H29       -11.2994   -4.3114   51.8783 H       1  ZINC001009984555    0.1100
     30 H30       -10.3928   -4.1463   53.4012 H       1  ZINC001009984555    0.1100
     31 H31       -10.7388   -4.4757   56.0060 H       1  ZINC001009984555    0.0800
     32 H32       -10.7586   -2.8347   55.2906 H       1  ZINC001009984555    0.0800
     33 H33       -11.0857   -4.1632   58.7101 H       1  ZINC001009984555    0.0800
     34 H34        -9.9681   -3.0367   57.9036 H       1  ZINC001009984555    0.0800
     35 H35       -11.6427   -1.2924   59.0025 H       1  ZINC001009984555    0.4000
     36 H36        -9.3430   -0.6915   61.7433 H       1  ZINC001009984555    0.1300
     37 H37        -9.8577    1.0168   63.4356 H       1  ZINC001009984555    0.1400
     38 H38       -12.1622    1.2961   64.2482 H       1  ZINC001009984555    0.1400
     39 H39       -14.1538   -1.6756   60.5805 H       1  ZINC001009984555    0.0800
     40 H40       -13.4042   -3.0960   61.3481 H       1  ZINC001009984555    0.1000
     41 H41       -14.6015   -2.1291   62.2425 H       1  ZINC001009984555    0.0600
     42 H42       -12.8998   -4.8993   57.7729 H       1  ZINC001009984555    0.0900
     43 H43       -13.9726   -3.4639   57.8614 H       1  ZINC001009984555    0.0900
     44 H44       -14.4685   -2.2412   55.5831 H       1  ZINC001009984555    0.0600
     45 H45       -15.1345   -3.4578   54.4674 H       1  ZINC001009984555    0.0700
     46 H46       -15.6421   -3.4422   56.1733 H       1  ZINC001009984555    0.0700
@<TRIPOS>BOND
     1     1     2    1
     2     1    26    1
     3     1    27    1
     4     1    28    1
     5     2     3    1
     6     3     4    1
     7     3    29    1
     8     3    30    1
     9     4     5    2
    10     4     6   am
    11     6    23    1
    12     6     7    1
    13     7     8    1
    14     7    31    1
    15     7    32    1
    16     8     9    1
    17     8    10    1
    18     8    22    1
    19    10    11    1
    20    10    33    1
    21    10    34    1
    22    11    12   am
    23    11    35    1
    24    12    13    2
    25    12    14    1
    26    14    20   ar
    27    14    15   ar
    28    15    16   ar
    29    15    36    1
    30    16    17   ar
    31    16    37    1
    32    17    18   ar
    33    17    38    1
    34    18    19    1
    35    18    20   ar
    36    20    21    1
    37    21    39    1
    38    21    40    1
    39    21    41    1
    40    22    23    1
    41    22    42    1
    42    22    43    1
    43    23    24    1
    44    23    25    1
    45    25    44    1
    46    25    45    1
    47    25    46    1
@<TRIPOS>SUBSTRUCTURE
     1 ZINC001009984555        1 TEMP              0 ****  ****    0 ROOT


##########                                Name:    ZINC001053433946
##########                DOCK_Rotatable_Bonds:                   6
##########                         Heavy_Atoms:                  24
##########                    Molecular_Weight:             337.419
##########                DOCK_Rotatable_Bonds:                   6
##########                       Formal_Charge:               -0.02
##########                     HBond_Acceptors:                   7
##########                        HBond_Donors:                   2
##########                         Heavy_Atoms:                  24
##########                          Grid_Score:          -30.821899
##########                     Grid_vdw_energy:          -29.738859
##########                      Grid_es_energy:           -1.083041
##########           Internal_energy_repulsive:           15.539467

@<TRIPOS>MOLECULE
ZINC001053433946
 51 54 1 0 0
SMALL
USER_CHARGES


@<TRIPOS>ATOM
      1 N1         -9.6566    0.8161   63.9685 N.am    1  ZINC001053433946   -0.8300
      2 C2        -10.8796    0.7906   63.4028 C.2     1  ZINC001053433946    0.5600
      3 O3        -11.8235    0.3428   64.0187 O.2     1  ZINC001053433946   -0.5500
      4 C4        -11.0743    1.3185   62.0047 C.3     1  ZINC001053433946   -0.1600
      5 H5        -10.8642    2.3794   61.8693 H       1  ZINC001053433946    0.1400
      6 C6        -12.2032    0.7098   61.1705 C.3     1  ZINC001053433946   -0.1300
      7 C7        -10.7450    0.3792   60.8427 C.3     1  ZINC001053433946   -0.1700
      8 H8        -10.3187    0.8222   59.9427 H       1  ZINC001053433946    0.1400
      9 C9        -10.2514   -1.0033   61.1831 C.2     1  ZINC001053433946    0.5400
     10 O10        -9.3933   -1.1501   62.0275 O.2     1  ZINC001053433946   -0.5200
     11 N11       -10.7637   -2.0768   60.5492 N.am    1  ZINC001053433946   -0.6100
     12 C12       -10.2990   -3.4370   60.8633 C.3     1  ZINC001053433946    0.0700
     13 C13        -9.8971   -4.1329   59.5587 C.3     1  ZINC001053433946    0.0500
     14 O14       -10.9878   -4.0731   58.6341 O.3     1  ZINC001053433946   -0.3400
     15 C15       -11.3915   -2.7481   58.2998 C.3     1  ZINC001053433946    0.0800
     16 C16       -10.4093   -2.0174   57.3744 C.3     1  ZINC001053433946   -0.0100
     17 N17       -11.2171   -2.5595   56.2585 N.3     1  ZINC001053433946   -0.4700
     18 C18       -11.4370   -1.5400   55.2239 C.3     1  ZINC001053433946    0.0200
     19 C19       -12.2184   -2.1542   54.0606 C.3     1  ZINC001053433946   -0.1200
     20 H20       -12.5815   -3.1412   54.3466 H       1  ZINC001053433946    0.0800
     21 C21       -13.4067   -1.2534   53.7101 C.3     1  ZINC001053433946   -0.1200
     22 C22       -14.1351   -1.8374   52.4957 C.3     1  ZINC001053433946   -0.1600
     23 C23       -13.1468   -1.9734   51.3345 C.3     1  ZINC001053433946    0.0600
     24 O24       -12.0512   -2.7979   51.7373 O.3     1  ZINC001053433946   -0.3800
     25 C25       -11.3037   -2.2795   52.8394 C.3     1  ZINC001053433946    0.0700
     26 C26       -12.3978   -2.6807   57.1434 C.3     1  ZINC001053433946    0.0200
     27 C27       -11.8111   -1.9259   59.5241 C.3     1  ZINC001053433946    0.1000
     28 H28        -9.5312    0.4752   64.8679 H       1  ZINC001053433946    0.4000
     29 H29        -8.9011    1.1717   63.4748 H       1  ZINC001053433946    0.4000
     30 H30       -12.8052   -0.0725   61.6329 H       1  ZINC001053433946    0.1100
     31 H31       -12.7356    1.3702   60.4860 H       1  ZINC001053433946    0.1200
     32 H32        -9.4380   -3.3843   61.5297 H       1  ZINC001053433946    0.1000
     33 H33       -11.1021   -3.9959   61.3435 H       1  ZINC001053433946    0.0800
     34 H34        -9.0295   -3.6307   59.1308 H       1  ZINC001053433946    0.0600
     35 H35        -9.6505   -5.1748   59.7633 H       1  ZINC001053433946    0.1100
     36 H36       -10.4501   -0.9315   57.4596 H       1  ZINC001053433946    0.0800
     37 H37        -9.3934   -2.4107   57.4132 H       1  ZINC001053433946    0.0900
     38 H38       -12.0052   -0.7110   55.6458 H       1  ZINC001053433946    0.0500
     39 H39       -10.4753   -1.1752   54.8633 H       1  ZINC001053433946    0.0800
     40 H40       -14.0907   -1.2059   54.5574 H       1  ZINC001053433946    0.0700
     41 H41       -13.0476   -0.2519   53.4730 H       1  ZINC001053433946    0.0700
     42 H42       -14.5369   -2.8184   52.7490 H       1  ZINC001053433946    0.0700
     43 H43       -14.9492   -1.1732   52.2052 H       1  ZINC001053433946    0.0700
     44 H44       -13.6494   -2.4282   50.4809 H       1  ZINC001053433946    0.0900
     45 H45       -12.7760   -0.9872   51.0551 H       1  ZINC001053433946    0.0500
     46 H46       -10.9085   -1.2972   52.5808 H       1  ZINC001053433946    0.0500
     47 H47       -10.4791   -2.9544   53.0689 H       1  ZINC001053433946    0.1000
     48 H48       -12.9632   -3.6012   56.9985 H       1  ZINC001053433946    0.1000
     49 H49       -13.0277   -1.7912   57.1602 H       1  ZINC001053433946    0.0900
     50 H50       -12.7639   -2.2932   59.9054 H       1  ZINC001053433946    0.0800
     51 H51       -11.9047   -0.8755   59.2479 H       1  ZINC001053433946    0.1000
@<TRIPOS>BOND
     1     1     2   am
     2     1    28    1
     3     1    29    1
     4     2     3    2
     5     2     4    1
     6     4     5    1
     7     4     7    1
     8     4     6    1
     9     6     7    1
    10     6    30    1
    11     6    31    1
    12     7     8    1
    13     7     9    1
    14     9    10    2
    15     9    11   am
    16    11    27    1
    17    11    12    1
    18    12    13    1
    19    12    32    1
    20    12    33    1
    21    13    14    1
    22    13    34    1
    23    13    35    1
    24    14    15    1
    25    15    26    1
    26    15    16    1
    27    15    27    1
    28    16    17    1
    29    16    36    1
    30    16    37    1
    31    17    18    1
    32    17    26    1
    33    18    19    1
    34    18    38    1
    35    18    39    1
    36    19    20    1
    37    19    25    1
    38    19    21    1
    39    21    22    1
    40    21    40    1
    41    21    41    1
    42    22    23    1
    43    22    42    1
    44    22    43    1
    45    23    24    1
    46    23    44    1
    47    23    45    1
    48    24    25    1
    49    25    46    1
    50    25    47    1
    51    26    48    1
    52    26    49    1
    53    27    50    1
    54    27    51    1
@<TRIPOS>SUBSTRUCTURE
     1 ZINC001053433946        1 TEMP              0 ****  ****    0 ROOT


##########                                Name:    ZINC000156038173
##########                DOCK_Rotatable_Bonds:                  10
##########                         Heavy_Atoms:                  27
##########                    Molecular_Weight:             396.357
##########                DOCK_Rotatable_Bonds:                  10
##########                       Formal_Charge:         -0.00999981
##########                     HBond_Acceptors:                  10
##########                        HBond_Donors:                   1
##########                         Heavy_Atoms:                  27
##########                          Grid_Score:          -30.810787
##########                     Grid_vdw_energy:          -30.979340
##########                      Grid_es_energy:            0.168552
##########           Internal_energy_repulsive:           37.364925

@<TRIPOS>MOLECULE
ZINC000156038173
 48 48 1 0 0
SMALL
USER_CHARGES


@<TRIPOS>ATOM
      1 C1        -11.8761   -4.2361   53.4137 C.3     1  ZINC000156038173    0.0700
      2 N2        -12.6101   -2.9773   53.5636 N.am    1  ZINC000156038173   -0.6300
      3 C3        -12.8931   -2.1498   52.3882 C.3     1  ZINC000156038173    0.1500
      4 C4        -14.3533   -2.3380   51.9718 C.3     1  ZINC000156038173   -0.1400
      5 C5        -14.5828   -1.6818   50.6347 C.2     1  ZINC000156038173    0.4700
      6 O6        -14.6327   -0.4774   50.5534 O.2     1  ZINC000156038173   -0.5000
      7 O7        -14.7318   -2.4355   49.5340 O.3     1  ZINC000156038173   -0.3500
      8 C8        -15.2754   -1.7824   48.3565 C.3     1  ZINC000156038173    0.1200
      9 C9        -14.2876   -0.7259   47.8577 C.3     1  ZINC000156038173   -0.1800
     10 C10       -15.5079   -2.8220   47.2583 C.3     1  ZINC000156038173   -0.1400
     11 C11       -16.6033   -1.1113   48.7128 C.3     1  ZINC000156038173   -0.1800
     12 C12       -13.0250   -2.5802   54.7829 C.2     1  ZINC000156038173    0.7100
     13 O13       -13.6355   -1.5361   54.9072 O.2     1  ZINC000156038173   -0.5700
     14 N14       -12.7633   -3.3406   55.8644 N.am    1  ZINC000156038173   -0.7400
     15 C15       -13.2158   -2.9099   57.1896 C.3     1  ZINC000156038173    0.1700
     16 H16       -13.5632   -1.8780   57.1373 H       1  ZINC000156038173    0.1500
     17 C17       -12.0724   -3.0060   58.1667 C.ar    1  ZINC000156038173   -0.1300
     18 C18       -11.1760   -4.0545   58.0804 C.ar    1  ZINC000156038173   -0.0700
     19 C19       -10.1266   -4.1440   58.9761 C.ar    1  ZINC000156038173   -0.1000
     20 C20        -9.9717   -3.1854   59.9596 C.ar    1  ZINC000156038173   -0.1100
     21 C21       -10.8677   -2.1342   60.0486 C.ar    1  ZINC000156038173    0.0700
     22 F22       -10.7170   -1.1968   61.0097 F       1  ZINC000156038173   -0.1200
     23 C23       -11.9168   -2.0412   59.1468 C.ar    1  ZINC000156038173    0.1000
     24 F24       -12.7927   -1.0161   59.2318 F       1  ZINC000156038173   -0.1200
     25 C25       -14.3615   -3.8108   57.6551 C.3     1  ZINC000156038173    0.4500
     26 F26       -15.5224   -3.4952   56.9410 F       1  ZINC000156038173   -0.1700
     27 F27       -14.0239   -5.1494   57.4283 F       1  ZINC000156038173   -0.1600
     28 F28       -14.5858   -3.6115   59.0215 F       1  ZINC000156038173   -0.1700
     29 H29       -10.8073   -4.0479   53.5153 H       1  ZINC000156038173    0.0600
     30 H30       -12.1963   -4.9375   54.1842 H       1  ZINC000156038173    0.0700
     31 H31       -12.0785   -4.6598   52.4300 H       1  ZINC000156038173    0.0800
     32 H32       -12.7166   -1.1019   52.6306 H       1  ZINC000156038173    0.1000
     33 H33       -12.2400   -2.4482   51.5681 H       1  ZINC000156038173    0.0900
     34 H34       -14.5756   -3.4024   51.8971 H       1  ZINC000156038173    0.1100
     35 H35       -15.0053   -1.8821   52.7169 H       1  ZINC000156038173    0.1100
     36 H36       -13.3416   -1.2039   47.6038 H       1  ZINC000156038173    0.0600
     37 H37       -14.6957   -0.2356   46.9737 H       1  ZINC000156038173    0.0700
     38 H38       -14.1220    0.0148   48.6400 H       1  ZINC000156038173    0.0800
     39 H39       -16.2116   -3.5748   47.6137 H       1  ZINC000156038173    0.0700
     40 H40       -15.9159   -2.3319   46.3744 H       1  ZINC000156038173    0.0800
     41 H41       -14.5618   -3.3003   47.0045 H       1  ZINC000156038173    0.0700
     42 H42       -16.4377   -0.3707   49.4952 H       1  ZINC000156038173    0.0800
     43 H43       -17.0114   -0.6211   47.8289 H       1  ZINC000156038173    0.0700
     44 H44       -17.3070   -1.8641   49.0682 H       1  ZINC000156038173    0.0600
     45 H45       -12.2751   -4.1730   55.7655 H       1  ZINC000156038173    0.4100
     46 H46       -11.2956   -4.8046   57.3128 H       1  ZINC000156038173    0.1400
     47 H47        -9.4273   -4.9642   58.9073 H       1  ZINC000156038173    0.1500
     48 H48        -9.1517   -3.2567   60.6588 H       1  ZINC000156038173    0.1500
@<TRIPOS>BOND
     1     1     2    1
     2     1    29    1
     3     1    30    1
     4     1    31    1
     5     2     3    1
     6     2    12   am
     7     3     4    1
     8     3    32    1
     9     3    33    1
    10     4     5    1
    11     4    34    1
    12     4    35    1
    13     5     6    2
    14     5     7    1
    15     7     8    1
    16     8     9    1
    17     8    10    1
    18     8    11    1
    19     9    36    1
    20     9    37    1
    21     9    38    1
    22    10    39    1
    23    10    40    1
    24    10    41    1
    25    11    42    1
    26    11    43    1
    27    11    44    1
    28    12    13    2
    29    12    14   am
    30    14    15    1
    31    14    45    1
    32    15    16    1
    33    15    17    1
    34    15    25    1
    35    17    23   ar
    36    17    18   ar
    37    18    19   ar
    38    18    46    1
    39    19    20   ar
    40    19    47    1
    41    20    21   ar
    42    20    48    1
    43    21    22    1
    44    21    23   ar
    45    23    24    1
    46    25    26    1
    47    25    27    1
    48    25    28    1
@<TRIPOS>SUBSTRUCTURE
     1 ZINC000156038173        1 TEMP              0 ****  ****    0 ROOT


##########                                Name:    ZINC001087843226
##########                DOCK_Rotatable_Bonds:                   6
##########                         Heavy_Atoms:                  27
##########                    Molecular_Weight:             368.479
##########                DOCK_Rotatable_Bonds:                   6
##########                       Formal_Charge:        -4.47035e-07
##########                     HBond_Acceptors:                   6
##########                        HBond_Donors:                   1
##########                         Heavy_Atoms:                  27
##########                          Grid_Score:          -30.804865
##########                     Grid_vdw_energy:          -29.476583
##########                      Grid_es_energy:           -1.328281
##########           Internal_energy_repulsive:           26.848698

@<TRIPOS>MOLECULE
ZINC001087843226
 55 58 1 0 0
SMALL
USER_CHARGES


@<TRIPOS>ATOM
      1 C1        -13.7430    1.7710   55.2292 C.3     1  ZINC001087843226   -0.1500
      2 C2        -13.8228    1.0102   53.9042 C.3     1  ZINC001087843226   -0.1500
      3 C3        -13.4245   -0.4498   54.1296 C.3     1  ZINC001087843226    0.0700
      4 H4        -14.0380   -0.8837   54.9191 H       1  ZINC001087843226    0.1000
      5 C5        -11.9332   -0.5331   54.5178 C.3     1  ZINC001087843226    0.1300
      6 H6        -11.3931    0.3450   54.1638 H       1  ZINC001087843226    0.1000
      7 N7        -11.7828   -0.6817   55.9675 N.am    1  ZINC001087843226   -0.7200
      8 C8        -10.6349   -0.3096   56.5676 C.2     1  ZINC001087843226    0.5600
      9 O9         -9.7237    0.1479   55.9059 O.2     1  ZINC001087843226   -0.5300
     10 C10       -10.4838   -0.4579   58.0309 C.ar    1  ZINC001087843226   -0.1400
     11 C11       -10.3255    0.6708   58.8343 C.ar    1  ZINC001087843226   -0.0800
     12 C12       -10.1850    0.5259   60.1992 C.ar    1  ZINC001087843226   -0.1300
     13 C13       -10.2016   -0.7339   60.7677 C.ar    1  ZINC001087843226   -0.0400
     14 C14       -10.0477   -0.8828   62.2594 C.3     1  ZINC001087843226   -0.1200
     15 C15       -10.3590   -1.8616   59.9765 C.ar    1  ZINC001087843226   -0.1100
     16 C16       -10.5053   -1.7297   58.6114 C.ar    1  ZINC001087843226   -0.0300
     17 C17       -10.6583   -3.0953   57.9769 C.3     1  ZINC001087843226   -0.0800
     18 C18       -10.1545   -4.0934   59.0411 C.3     1  ZINC001087843226   -0.1200
     19 C19       -10.4089   -3.3260   60.3578 C.3     1  ZINC001087843226   -0.0800
     20 C20       -11.4505   -1.8090   53.7788 C.3     1  ZINC001087843226   -0.1400
     21 C21       -12.2760   -1.7434   52.4697 C.3     1  ZINC001087843226    0.0400
     22 N22       -13.5978   -1.2154   52.8815 N.3     1  ZINC001087843226   -0.5100
     23 C23       -14.1818   -0.3767   51.8263 C.3     1  ZINC001087843226    0.1100
     24 C24       -14.3046   -1.1795   50.5568 C.2     1  ZINC001087843226    0.0800
     25 N25       -14.5183   -2.4599   50.4957 N.2     1  ZINC001087843226   -0.2700
     26 O26       -14.5656   -2.8174   49.1236 O.3     1  ZINC001087843226    0.0300
     27 N27       -14.3587   -1.6203   48.3906 N.2     1  ZINC001087843226   -0.2800
     28 C28       -14.2117   -0.6578   49.2513 C.2     1  ZINC001087843226    0.0900
     29 C29       -13.9689    0.7890   48.9068 C.3     1  ZINC001087843226   -0.0900
     30 H30       -13.9599    2.8252   55.0565 H       1  ZINC001087843226    0.0600
     31 H31       -14.4712    1.3601   55.9285 H       1  ZINC001087843226    0.0600
     32 H32       -12.7412    1.6698   55.6466 H       1  ZINC001087843226    0.0600
     33 H33       -14.8423    1.0537   53.5210 H       1  ZINC001087843226    0.0800
     34 H34       -13.1438    1.4648   53.1828 H       1  ZINC001087843226    0.0700
     35 H35       -12.5096   -1.0479   56.4954 H       1  ZINC001087843226    0.4000
     36 H36       -10.3123    1.6550   58.3897 H       1  ZINC001087843226    0.1300
     37 H37       -10.0617    1.3980   60.8241 H       1  ZINC001087843226    0.1300
     38 H38       -11.0302   -0.8550   62.7305 H       1  ZINC001087843226    0.0800
     39 H39        -9.5649   -1.8344   62.4816 H       1  ZINC001087843226    0.0700
     40 H40        -9.4367   -0.0666   62.6449 H       1  ZINC001087843226    0.0700
     41 H41       -11.7052   -3.2885   57.7427 H       1  ZINC001087843226    0.0800
     42 H42       -10.0493   -3.1639   57.0755 H       1  ZINC001087843226    0.0900
     43 H43       -10.7355   -5.0152   59.0137 H       1  ZINC001087843226    0.0800
     44 H44        -9.0925   -4.2990   58.9075 H       1  ZINC001087843226    0.0700
     45 H45        -9.6276   -3.5511   61.0836 H       1  ZINC001087843226    0.0800
     46 H46       -11.3877   -3.5834   60.7624 H       1  ZINC001087843226    0.0800
     47 H47       -10.3819   -1.7582   53.5695 H       1  ZINC001087843226    0.0800
     48 H48       -11.6930   -2.7057   54.3489 H       1  ZINC001087843226    0.0800
     49 H49       -11.8024   -1.0695   51.7557 H       1  ZINC001087843226    0.0600
     50 H50       -12.3840   -2.7389   52.0390 H       1  ZINC001087843226    0.0800
     51 H51       -15.1692   -0.0360   52.1377 H       1  ZINC001087843226    0.1200
     52 H52       -13.5387    0.4856   51.6501 H       1  ZINC001087843226    0.0700
     53 H53       -14.9176    1.3257   48.9028 H       1  ZINC001087843226    0.1000
     54 H54       -13.3039    1.2323   49.6481 H       1  ZINC001087843226    0.0900
     55 H55       -13.5096    0.8555   47.9206 H       1  ZINC001087843226    0.0900
@<TRIPOS>BOND
     1     1     2    1
     2     1    30    1
     3     1    31    1
     4     1    32    1
     5     2     3    1
     6     2    33    1
     7     2    34    1
     8     3     4    1
     9     3    22    1
    10     3     5    1
    11     5     6    1
    12     5     7    1
    13     5    20    1
    14     7     8   am
    15     7    35    1
    16     8     9    2
    17     8    10    1
    18    10    16   ar
    19    10    11   ar
    20    11    12   ar
    21    11    36    1
    22    12    13   ar
    23    12    37    1
    24    13    14    1
    25    13    15   ar
    26    14    38    1
    27    14    39    1
    28    14    40    1
    29    15    19    1
    30    15    16   ar
    31    16    17    1
    32    17    18    1
    33    17    41    1
    34    17    42    1
    35    18    19    1
    36    18    43    1
    37    18    44    1
    38    19    45    1
    39    19    46    1
    40    20    21    1
    41    20    47    1
    42    20    48    1
    43    21    22    1
    44    21    49    1
    45    21    50    1
    46    22    23    1
    47    23    24    1
    48    23    51    1
    49    23    52    1
    50    24    28    1
    51    24    25    2
    52    25    26    1
    53    26    27    1
    54    27    28    2
    55    28    29    1
    56    29    53    1
    57    29    54    1
    58    29    55    1
@<TRIPOS>SUBSTRUCTURE
     1 ZINC001087843226        1 TEMP              0 ****  ****    0 ROOT


##########                                Name:    ZINC000001174632
##########                DOCK_Rotatable_Bonds:                   6
##########                         Heavy_Atoms:                  29
##########                    Molecular_Weight:             385.419
##########                DOCK_Rotatable_Bonds:                   6
##########                       Formal_Charge:           0.0400005
##########                     HBond_Acceptors:                   5
##########                        HBond_Donors:                   1
##########                         Heavy_Atoms:                  29
##########                          Grid_Score:          -30.772305
##########                     Grid_vdw_energy:          -30.330404
##########                      Grid_es_energy:           -0.441900
##########           Internal_energy_repulsive:           16.354864

@<TRIPOS>MOLECULE
ZINC000001174632
 48 51 1 0 0
SMALL
USER_CHARGES


@<TRIPOS>ATOM
      1 C1        -15.0399   -0.4043   58.9353 C.3     1  ZINC000001174632    0.0400
      2 O2        -14.7139   -1.5794   58.1474 O.3     1  ZINC000001174632   -0.3500
      3 C3        -14.0123   -2.5525   58.7615 C.2     1  ZINC000001174632    0.5200
      4 O4        -13.6218   -2.3931   59.9010 O.2     1  ZINC000001174632   -0.5200
      5 C5        -13.7189   -3.8097   58.0510 C.ar    1  ZINC000001174632   -0.2000
      6 C6        -14.7614   -4.6006   57.5620 C.ar    1  ZINC000001174632   -0.0200
      7 C7        -14.4800   -5.7751   56.8978 C.ar    1  ZINC000001174632   -0.1800
      8 C8        -13.1673   -6.1773   56.7116 C.ar    1  ZINC000001174632   -0.0300
      9 C9        -12.1259   -5.4075   57.1890 C.ar    1  ZINC000001174632   -0.1900
     10 C10       -12.3889   -4.2174   57.8559 C.ar    1  ZINC000001174632    0.2600
     11 N11       -11.3430   -3.4408   58.3369 N.pl3   1  ZINC000001174632   -0.6500
     12 C12       -10.9813   -2.2939   57.6781 C.2     1  ZINC000001174632    0.2300
     13 C13       -10.4933   -1.1477   58.2756 C.2     1  ZINC000001174632   -0.1800
     14 C14       -10.2742   -0.9527   59.7260 C.ar    1  ZINC000001174632   -0.0600
     15 C15        -9.3341   -1.7314   60.4026 C.ar    1  ZINC000001174632   -0.0600
     16 C16        -9.1330   -1.5465   61.7544 C.ar    1  ZINC000001174632   -0.1500
     17 C17        -9.8643   -0.5879   62.4422 C.ar    1  ZINC000001174632    0.1400
     18 O18        -9.6631   -0.4088   63.7747 O.3     1  ZINC000001174632   -0.3200
     19 C19       -10.4342    0.6089   64.4163 C.3     1  ZINC000001174632    0.0300
     20 C20       -10.8003    0.1887   61.7729 C.ar    1  ZINC000001174632   -0.2100
     21 C21       -11.0030    0.0144   60.4200 C.ar    1  ZINC000001174632   -0.0500
     22 C22       -10.2285   -0.1564   57.2252 C.2     1  ZINC000001174632    0.4500
     23 O23        -9.7926    0.9670   57.3845 O.2     1  ZINC000001174632   -0.4100
     24 C24       -10.5949   -0.7885   55.9278 C.ar    1  ZINC000001174632   -0.1600
     25 C25       -10.5584   -0.3384   54.6214 C.ar    1  ZINC000001174632   -0.0500
     26 C26       -10.9742   -1.1730   53.5887 C.ar    1  ZINC000001174632   -0.1100
     27 C27       -11.4227   -2.4466   53.8637 C.ar    1  ZINC000001174632   -0.0900
     28 C28       -11.4637   -2.9098   55.1735 C.ar    1  ZINC000001174632   -0.0800
     29 C29       -11.0459   -2.0897   56.2113 C.ar    1  ZINC000001174632   -0.0600
     30 H30       -14.1202    0.0698   59.2784 H       1  ZINC000001174632    0.0700
     31 H31       -15.6044    0.2988   58.3228 H       1  ZINC000001174632    0.1100
     32 H32       -15.6398   -0.6990   59.7963 H       1  ZINC000001174632    0.0700
     33 H33       -15.7865   -4.2923   57.7045 H       1  ZINC000001174632    0.1400
     34 H34       -15.2874   -6.3855   56.5208 H       1  ZINC000001174632    0.1300
     35 H35       -12.9575   -7.0993   56.1899 H       1  ZINC000001174632    0.1300
     36 H36       -11.1054   -5.7284   57.0404 H       1  ZINC000001174632    0.1300
     37 H37       -10.8683   -3.7095   59.1389 H       1  ZINC000001174632    0.4300
     38 H38        -8.7652   -2.4778   59.8683 H       1  ZINC000001174632    0.1300
     39 H39        -8.4057   -2.1487   62.2786 H       1  ZINC000001174632    0.1300
     40 H40       -10.2188    1.5729   63.9553 H       1  ZINC000001174632    0.0600
     41 H41       -11.4952    0.3833   64.3079 H       1  ZINC000001174632    0.0600
     42 H42       -10.1770    0.6467   65.4748 H       1  ZINC000001174632    0.1000
     43 H43       -11.3675    0.9332   62.3117 H       1  ZINC000001174632    0.1300
     44 H44       -11.7311    0.6192   59.8999 H       1  ZINC000001174632    0.1300
     45 H45       -10.2081    0.6594   54.4026 H       1  ZINC000001174632    0.1400
     46 H46       -10.9457   -0.8213   52.5679 H       1  ZINC000001174632    0.1400
     47 H47       -11.7446   -3.0884   53.0570 H       1  ZINC000001174632    0.1400
     48 H48       -11.8163   -3.9089   55.3827 H       1  ZINC000001174632    0.1300
@<TRIPOS>BOND
     1     1     2    1
     2     1    30    1
     3     1    31    1
     4     1    32    1
     5     2     3    1
     6     3     4    2
     7     3     5    1
     8     5    10   ar
     9     5     6   ar
    10     6     7   ar
    11     6    33    1
    12     7     8   ar
    13     7    34    1
    14     8     9   ar
    15     8    35    1
    16     9    10   ar
    17     9    36    1
    18    10    11    1
    19    11    12    1
    20    11    37    1
    21    12    29    1
    22    12    13    2
    23    13    14    1
    24    13    22    1
    25    14    21   ar
    26    14    15   ar
    27    15    16   ar
    28    15    38    1
    29    16    17   ar
    30    16    39    1
    31    17    18    1
    32    17    20   ar
    33    18    19    1
    34    19    40    1
    35    19    41    1
    36    19    42    1
    37    20    21   ar
    38    20    43    1
    39    21    44    1
    40    22    23    2
    41    22    24    1
    42    24    29   ar
    43    24    25   ar
    44    25    26   ar
    45    25    45    1
    46    26    27   ar
    47    26    46    1
    48    27    28   ar
    49    27    47    1
    50    28    29   ar
    51    28    48    1
@<TRIPOS>SUBSTRUCTURE
     1 ZINC000001174632        1 TEMP              0 ****  ****    0 ROOT


##########                                Name:    ZINC000899027326
##########                DOCK_Rotatable_Bonds:                   5
##########                         Heavy_Atoms:                  22
##########                    Molecular_Weight:             346.169
##########                DOCK_Rotatable_Bonds:                   5
##########                       Formal_Charge:           0.0300005
##########                     HBond_Acceptors:                   9
##########                        HBond_Donors:                   1
##########                         Heavy_Atoms:                  22
##########                          Grid_Score:          -30.766079
##########                     Grid_vdw_energy:          -30.184975
##########                      Grid_es_energy:           -0.581104
##########           Internal_energy_repulsive:           17.001892

@<TRIPOS>MOLECULE
ZINC000899027326
 35 36 1 0 0
SMALL
USER_CHARGES


@<TRIPOS>ATOM
      1 C1         -9.8943   -0.7851   58.2577 C.3     1  ZINC000899027326   -0.1500
      2 C2        -10.9325   -1.7797   58.7813 C.3     1  ZINC000899027326    0.1100
      3 H3        -11.5436   -1.3207   59.5585 H       1  ZINC000899027326    0.1400
      4 C4        -11.8027   -2.2879   57.6490 C.2     1  ZINC000899027326    0.5300
      5 O5        -12.5322   -1.6332   56.9355 O.2     1  ZINC000899027326   -0.4500
      6 N6        -11.5963   -3.6187   57.6000 N.am    1  ZINC000899027326   -0.3700
      7 N7        -12.2162   -4.4780   56.6834 N.am    1  ZINC000899027326   -0.5000
      8 C8        -13.4884   -4.8745   56.8854 C.2     1  ZINC000899027326    0.5200
      9 O9        -14.0970   -4.4864   57.8600 O.2     1  ZINC000899027326   -0.4800
     10 C10       -14.1546   -5.8002   55.9004 C.3     1  ZINC000899027326    0.0500
     11 O11       -15.1689   -5.0885   55.1887 O.3     1  ZINC000899027326   -0.2700
     12 C12       -14.7631   -4.3050   54.1545 C.ar    1  ZINC000899027326    0.1400
     13 C13       -13.4213   -4.2512   53.8092 C.ar    1  ZINC000899027326   -0.1900
     14 C14       -13.0105   -3.4543   52.7576 C.ar    1  ZINC000899027326   -0.0600
     15 C15       -13.9366   -2.7100   52.0492 C.ar    1  ZINC000899027326   -0.0600
     16 Cl16      -13.4175   -1.7102   50.7283 Cl      1  ZINC000899027326   -0.0500
     17 C17       -15.2765   -2.7616   52.3916 C.ar    1  ZINC000899027326   -0.0600
     18 C18       -15.6924   -3.5619   53.4389 C.ar    1  ZINC000899027326   -0.0500
     19 Cl19      -17.3732   -3.6268   53.8685 Cl      1  ZINC000899027326   -0.0300
     20 C20       -10.7256   -4.0179   58.5342 C.2     1  ZINC000899027326    0.7000
     21 O21       -10.3805   -5.1732   58.6864 O.2     1  ZINC000899027326   -0.5200
     22 N22       -10.2748   -2.9958   59.2898 N.am    1  ZINC000899027326   -0.6200
     23 C23        -9.3169   -3.0804   60.3950 C.3     1  ZINC000899027326    0.1200
     24 H24        -9.3018   -1.2573   57.4740 H       1  ZINC000899027326    0.0700
     25 H25       -10.4018    0.0900   57.8522 H       1  ZINC000899027326    0.0900
     26 H26        -9.2397   -0.4798   59.0740 H       1  ZINC000899027326    0.0900
     27 H27       -11.7299   -4.7875   55.9033 H       1  ZINC000899027326    0.4300
     28 H28       -13.4125   -6.1764   55.1962 H       1  ZINC000899027326    0.1100
     29 H29       -14.6048   -6.6367   56.4351 H       1  ZINC000899027326    0.1100
     30 H30       -12.6975   -4.8318   54.3620 H       1  ZINC000899027326    0.1500
     31 H31       -11.9654   -3.4121   52.4889 H       1  ZINC000899027326    0.1500
     32 H32       -15.9982   -2.1799   51.8373 H       1  ZINC000899027326    0.1500
     33 H33        -9.0074   -4.1169   60.5290 H       1  ZINC000899027326    0.0900
     34 H34        -8.4448   -2.4674   60.1677 H       1  ZINC000899027326    0.0700
     35 H35        -9.7857   -2.7200   61.3106 H       1  ZINC000899027326    0.0700
@<TRIPOS>BOND
     1     1     2    1
     2     1    24    1
     3     1    25    1
     4     1    26    1
     5     2     3    1
     6     2    22    1
     7     2     4    1
     8     4     5    2
     9     4     6   am
    10     6     7    1
    11     6    20   am
    12     7     8   am
    13     7    27    1
    14     8     9    2
    15     8    10    1
    16    10    11    1
    17    10    28    1
    18    10    29    1
    19    11    12    1
    20    12    18   ar
    21    12    13   ar
    22    13    14   ar
    23    13    30    1
    24    14    15   ar
    25    14    31    1
    26    15    16    1
    27    15    17   ar
    28    17    18   ar
    29    17    32    1
    30    18    19    1
    31    20    21    2
    32    20    22   am
    33    22    23    1
    34    23    33    1
    35    23    34    1
    36    23    35    1
@<TRIPOS>SUBSTRUCTURE
     1 ZINC000899027326        1 TEMP              0 ****  ****    0 ROOT


##########                                Name:    ZINC000028372981
##########                DOCK_Rotatable_Bonds:                   7
##########                         Heavy_Atoms:                  28
##########                    Molecular_Weight:             380.443
##########                DOCK_Rotatable_Bonds:                   7
##########                       Formal_Charge:         1.78814e-07
##########                     HBond_Acceptors:                   6
##########                        HBond_Donors:                   1
##########                         Heavy_Atoms:                  28
##########                          Grid_Score:          -30.740372
##########                     Grid_vdw_energy:          -29.661463
##########                      Grid_es_energy:           -1.078909
##########           Internal_energy_repulsive:           19.499218

@<TRIPOS>MOLECULE
ZINC000028372981
 52 54 1 0 0
SMALL
USER_CHARGES


@<TRIPOS>ATOM
      1 C1        -13.8104   -0.4091   62.7406 C.3     1  ZINC000028372981   -0.1800
      2 C2        -14.2408   -1.3780   61.6697 C.2     1  ZINC000028372981    0.5200
      3 O3        -15.4064   -1.6992   61.5755 O.2     1  ZINC000028372981   -0.5100
      4 N4        -13.3302   -1.8876   60.8167 N.am    1  ZINC000028372981   -0.5500
      5 C5        -11.8992   -1.5738   60.8318 C.3     1  ZINC000028372981    0.1000
      6 C6        -11.2940   -2.3928   59.6800 C.3     1  ZINC000028372981   -0.0900
      7 C7        -12.4703   -3.1321   59.0820 C.ar    1  ZINC000028372981   -0.1500
      8 C8        -12.5371   -4.0175   58.0297 C.ar    1  ZINC000028372981    0.0000
      9 C9        -13.7655   -4.5728   57.6597 C.ar    1  ZINC000028372981   -0.1600
     10 C10       -13.8436   -5.5176   56.5303 C.2     1  ZINC000028372981    0.5200
     11 O11       -13.1197   -6.4931   56.5032 O.2     1  ZINC000028372981   -0.5000
     12 O12       -14.7176   -5.2992   55.5283 O.3     1  ZINC000028372981   -0.3200
     13 C13       -14.8740   -3.9280   55.0771 C.3     1  ZINC000028372981    0.0700
     14 H14       -15.1512   -3.2970   55.9215 H       1  ZINC000028372981    0.1200
     15 C15       -15.9697   -3.8637   54.0111 C.3     1  ZINC000028372981   -0.1700
     16 C16       -13.5739   -3.4406   54.4912 C.2     1  ZINC000028372981    0.5200
     17 O17       -12.6897   -4.2306   54.2361 O.2     1  ZINC000028372981   -0.4900
     18 N18       -13.3938   -2.1267   54.2506 N.am    1  ZINC000028372981   -0.6600
     19 C19       -12.1867   -1.6741   53.7066 C.ar    1  ZINC000028372981    0.1500
     20 C20       -11.7435   -2.1700   52.4876 C.ar    1  ZINC000028372981   -0.1300
     21 C21       -10.5517   -1.7208   51.9531 C.ar    1  ZINC000028372981   -0.1000
     22 C22        -9.8004   -0.7781   52.6303 C.ar    1  ZINC000028372981   -0.1300
     23 C23       -10.2392   -0.2818   53.8443 C.ar    1  ZINC000028372981   -0.0700
     24 C24        -9.4174    0.7459   54.5786 C.3     1  ZINC000028372981   -0.1200
     25 C25       -11.4293   -0.7275   54.3846 C.ar    1  ZINC000028372981   -0.1200
     26 C26       -11.9062   -0.1870   55.7079 C.3     1  ZINC000028372981   -0.1200
     27 C27       -14.9184   -4.2302   58.3722 C.ar    1  ZINC000028372981   -0.0200
     28 C28       -14.8416   -3.3500   59.4242 C.ar    1  ZINC000028372981   -0.1800
     29 C29       -13.6138   -2.7892   59.7924 C.ar    1  ZINC000028372981    0.1900
     30 H30       -13.3632    0.4701   62.2769 H       1  ZINC000028372981    0.1000
     31 H31       -14.6778   -0.1083   63.3283 H       1  ZINC000028372981    0.1000
     32 H32       -13.0790   -0.8882   63.3915 H       1  ZINC000028372981    0.1000
     33 H33       -11.7440   -0.5086   60.6604 H       1  ZINC000028372981    0.0900
     34 H34       -11.4566   -1.8730   61.7818 H       1  ZINC000028372981    0.0900
     35 H35       -10.8434   -1.7323   58.9393 H       1  ZINC000028372981    0.1000
     36 H36       -10.5541   -3.0965   60.0614 H       1  ZINC000028372981    0.1000
     37 H37       -11.6409   -4.2799   57.4873 H       1  ZINC000028372981    0.1400
     38 H38       -15.6925   -4.4947   53.1666 H       1  ZINC000028372981    0.0800
     39 H39       -16.9100   -4.2163   54.4349 H       1  ZINC000028372981    0.0800
     40 H40       -16.0871   -2.8343   53.6724 H       1  ZINC000028372981    0.0800
     41 H41       -14.1009   -1.4949   54.4546 H       1  ZINC000028372981    0.4100
     42 H42       -12.3324   -2.9029   51.9560 H       1  ZINC000028372981    0.1400
     43 H43       -10.2066   -2.1061   51.0051 H       1  ZINC000028372981    0.1300
     44 H44        -8.8690   -0.4282   52.2100 H       1  ZINC000028372981    0.1200
     45 H45        -9.7220    1.7450   54.2669 H       1  ZINC000028372981    0.0700
     46 H46        -9.5736    0.6367   55.6518 H       1  ZINC000028372981    0.0700
     47 H47        -8.3621    0.5995   54.3484 H       1  ZINC000028372981    0.0700
     48 H48       -12.5242    0.6948   55.5389 H       1  ZINC000028372981    0.0700
     49 H49       -12.4929   -0.9488   56.2214 H       1  ZINC000028372981    0.0600
     50 H50       -11.0466    0.0839   56.3208 H       1  ZINC000028372981    0.0800
     51 H51       -15.8705   -4.6582   58.0953 H       1  ZINC000028372981    0.1500
     52 H52       -15.7357   -3.0886   59.9708 H       1  ZINC000028372981    0.1500
@<TRIPOS>BOND
     1     1     2    1
     2     1    30    1
     3     1    31    1
     4     1    32    1
     5     2     3    2
     6     2     4   am
     7     4    29    1
     8     4     5    1
     9     5     6    1
    10     5    33    1
    11     5    34    1
    12     6     7    1
    13     6    35    1
    14     6    36    1
    15     7    29   ar
    16     7     8   ar
    17     8     9   ar
    18     8    37    1
    19     9    10    1
    20     9    27   ar
    21    10    11    2
    22    10    12    1
    23    12    13    1
    24    13    14    1
    25    13    15    1
    26    13    16    1
    27    15    38    1
    28    15    39    1
    29    15    40    1
    30    16    17    2
    31    16    18   am
    32    18    19    1
    33    18    41    1
    34    19    25   ar
    35    19    20   ar
    36    20    21   ar
    37    20    42    1
    38    21    22   ar
    39    21    43    1
    40    22    23   ar
    41    22    44    1
    42    23    24    1
    43    23    25   ar
    44    24    45    1
    45    24    46    1
    46    24    47    1
    47    25    26    1
    48    26    48    1
    49    26    49    1
    50    26    50    1
    51    27    28   ar
    52    27    51    1
    53    28    29   ar
    54    28    52    1
@<TRIPOS>SUBSTRUCTURE
     1 ZINC000028372981        1 TEMP              0 ****  ****    0 ROOT


##########                                Name:    ZINC000854500114
##########                DOCK_Rotatable_Bonds:                   7
##########                         Heavy_Atoms:                  24
##########                    Molecular_Weight:             399.288
##########                DOCK_Rotatable_Bonds:                   7
##########                       Formal_Charge:          -0.0399992
##########                     HBond_Acceptors:                   7
##########                        HBond_Donors:                   2
##########                         Heavy_Atoms:                  24
##########                          Grid_Score:          -30.738298
##########                     Grid_vdw_energy:          -29.660427
##########                      Grid_es_energy:           -1.077872
##########           Internal_energy_repulsive:           80.389908

@<TRIPOS>MOLECULE
ZINC000854500114
 47 49 1 0 0
SMALL
USER_CHARGES


@<TRIPOS>ATOM
      1 O1        -12.5159   -5.0713   56.5542 O.2     1  ZINC000854500114   -0.5800
      2 C2        -12.3200   -4.3228   57.4913 C.2     1  ZINC000854500114    0.6600
      3 N3        -13.3534   -3.9110   58.2522 N.am    1  ZINC000854500114   -0.7100
      4 C4        -14.7136   -4.3611   57.9461 C.3     1  ZINC000854500114    0.1600
      5 C5        -15.5913   -4.2903   59.2127 C.3     1  ZINC000854500114   -0.1400
      6 C6        -16.3093   -2.9224   59.1013 C.3     1  ZINC000854500114   -0.1300
      7 C7        -16.6062   -2.8147   57.5849 C.3     1  ZINC000854500114   -0.1300
      8 C8        -15.3589   -3.4229   56.9112 C.3     1  ZINC000854500114   -0.1300
      9 O9        -11.0701   -3.9091   57.7726 O.3     1  ZINC000854500114   -0.3600
     10 C10       -10.8784   -3.1918   59.0204 C.3     1  ZINC000854500114    0.1000
     11 C11       -11.2792   -1.7271   58.8334 C.3     1  ZINC000854500114    0.1500
     12 H12       -12.3491   -1.6634   58.6354 H       1  ZINC000854500114    0.0900
     13 C13       -10.5025   -1.1284   57.6563 C.3     1  ZINC000854500114   -0.1300
     14 C14       -10.8024    0.3693   57.5616 C.3     1  ZINC000854500114   -0.1200
     15 C15       -10.3453    1.0651   58.8457 C.3     1  ZINC000854500114   -0.1400
     16 C16       -11.1202    0.4913   60.0362 C.3     1  ZINC000854500114    0.0900
     17 N17       -10.9575   -0.9692   60.0503 N.am    1  ZINC000854500114   -0.6100
     18 C18       -10.5170   -1.6004   61.1566 C.2     1  ZINC000854500114    0.5900
     19 O19       -10.3866   -2.8097   61.1556 O.2     1  ZINC000854500114   -0.4900
     20 C20       -10.1937   -0.8265   62.3658 C.2     1  ZINC000854500114   -0.0300
     21 C21       -11.0475   -0.0010   63.0765 C.2     1  ZINC000854500114   -0.1200
     22 C22       -10.2820    0.5023   64.1318 C.2     1  ZINC000854500114    0.0200
     23 Br23      -10.8797    1.6972   65.4701 Br      1  ZINC000854500114    0.0400
     24 N24        -9.0778   -0.0007   64.0295 N.2     1  ZINC000854500114   -0.2400
     25 N25        -8.9925   -0.7835   63.0148 N.pl3   1  ZINC000854500114   -0.3700
     26 H26       -13.1967   -3.3166   59.0026 H       1  ZINC000854500114    0.4000
     27 H27       -14.6915   -5.3812   57.5627 H       1  ZINC000854500114    0.0900
     28 H28       -16.3176   -5.1029   59.2195 H       1  ZINC000854500114    0.0800
     29 H29       -14.9715   -4.3239   60.1088 H       1  ZINC000854500114    0.0700
     30 H30       -17.2349   -2.9239   59.6771 H       1  ZINC000854500114    0.0700
     31 H31       -15.6533   -2.1143   59.4248 H       1  ZINC000854500114    0.0700
     32 H32       -17.4965   -3.3891   57.3289 H       1  ZINC000854500114    0.0700
     33 H33       -16.7270   -1.7715   57.2931 H       1  ZINC000854500114    0.0700
     34 H34       -14.6601   -2.6327   56.6366 H       1  ZINC000854500114    0.0700
     35 H35       -15.6508   -3.9879   56.0259 H       1  ZINC000854500114    0.0800
     36 H36       -11.4971   -3.6415   59.7968 H       1  ZINC000854500114    0.1000
     37 H37        -9.8301   -3.2470   59.3138 H       1  ZINC000854500114    0.0700
     38 H38        -9.4340   -1.2763   57.8127 H       1  ZINC000854500114    0.0800
     39 H39       -10.8069   -1.6197   56.7321 H       1  ZINC000854500114    0.0900
     40 H40       -10.2703    0.7930   56.7098 H       1  ZINC000854500114    0.0800
     41 H41       -11.8742    0.5175   57.4300 H       1  ZINC000854500114    0.0700
     42 H42        -9.2783    0.8966   58.9908 H       1  ZINC000854500114    0.0700
     43 H43       -10.5378    2.1352   58.7680 H       1  ZINC000854500114    0.0800
     44 H44       -10.7298    0.9116   60.9631 H       1  ZINC000854500114    0.0800
     45 H45       -12.1772    0.7382   59.9373 H       1  ZINC000854500114    0.0800
     46 H46       -12.0846    0.2094   62.8613 H       1  ZINC000854500114    0.1700
     47 H47        -8.1948   -1.2659   62.7465 H       1  ZINC000854500114    0.4500
@<TRIPOS>BOND
     1     1     2    2
     2     2     3   am
     3     2     9    1
     4     3     4    1
     5     3    26    1
     6     4     8    1
     7     4     5    1
     8     4    27    1
     9     5     6    1
    10     5    28    1
    11     5    29    1
    12     6     7    1
    13     6    30    1
    14     6    31    1
    15     7     8    1
    16     7    32    1
    17     7    33    1
    18     8    34    1
    19     8    35    1
    20     9    10    1
    21    10    11    1
    22    10    36    1
    23    10    37    1
    24    11    12    1
    25    11    17    1
    26    11    13    1
    27    13    14    1
    28    13    38    1
    29    13    39    1
    30    14    15    1
    31    14    40    1
    32    14    41    1
    33    15    16    1
    34    15    42    1
    35    15    43    1
    36    16    17    1
    37    16    44    1
    38    16    45    1
    39    17    18   am
    40    18    19    2
    41    18    20    1
    42    20    25    1
    43    20    21    2
    44    21    22    1
    45    21    46    1
    46    22    23    1
    47    22    24    2
    48    24    25    1
    49    25    47    1
@<TRIPOS>SUBSTRUCTURE
     1 ZINC000854500114        1 TEMP              0 ****  ****    0 ROOT


##########                                Name:    ZINC001078748831
##########                DOCK_Rotatable_Bonds:                   6
##########                         Heavy_Atoms:                  23
##########                    Molecular_Weight:             333.417
##########                DOCK_Rotatable_Bonds:                   6
##########                       Formal_Charge:           0.0299999
##########                     HBond_Acceptors:                   9
##########                        HBond_Donors:                   2
##########                         Heavy_Atoms:                  23
##########                          Grid_Score:          -30.720060
##########                     Grid_vdw_energy:          -29.664413
##########                      Grid_es_energy:           -1.055647
##########           Internal_energy_repulsive:            4.357124

@<TRIPOS>MOLECULE
ZINC001078748831
 42 45 1 0 0
SMALL
USER_CHARGES


@<TRIPOS>ATOM
      1 C1         -5.3030    3.3482   53.6401 C.3     1  ZINC001078748831    0.1000
      2 N2         -4.8763    2.7571   52.3693 N.pl3   1  ZINC001078748831   -0.1400
      3 N3         -5.6423    2.0839   51.5872 N.2     1  ZINC001078748831   -0.2900
      4 C4         -4.9533    1.6991   50.5399 C.2     1  ZINC001078748831    0.0400
      5 C5         -3.6506    2.2007   50.7330 C.2     1  ZINC001078748831   -0.0500
      6 C6         -2.4887    2.0422   49.8332 C.2     1  ZINC001078748831    0.6200
      7 O7         -1.3930    1.7886   50.2944 O.2     1  ZINC001078748831   -0.5200
      8 N8         -2.6442    2.1790   48.5014 N.am    1  ZINC001078748831   -0.7000
      9 C9         -1.4922    2.0236   47.6097 C.3     1  ZINC001078748831    0.1500
     10 H10        -0.9001    1.1360   47.8328 H       1  ZINC001078748831    0.1100
     11 C11        -0.6520    3.3045   47.4570 C.3     1  ZINC001078748831   -0.1800
     12 C12        -1.5639    3.6742   46.2730 C.3     1  ZINC001078748831    0.0800
     13 H13        -2.4411    4.2537   46.5607 H       1  ZINC001078748831    0.1000
     14 N14        -0.8431    4.2567   45.1332 N.3     1  ZINC001078748831   -0.6700
     15 C15        -1.7365    5.0863   44.3137 C.3     1  ZINC001078748831    0.1400
     16 C16        -1.0564    5.4218   43.0113 C.2     1  ZINC001078748831    0.0600
     17 N17         0.2367    5.4111   42.8424 N.2     1  ZINC001078748831   -0.5700
     18 S18         0.5438    5.8112   41.3662 S.3     1  ZINC001078748831    0.6800
     19 N19        -0.9198    6.0170   40.8669 N.2     1  ZINC001078748831   -0.5700
     20 C20        -1.7312    5.7703   41.8577 C.2     1  ZINC001078748831    0.0500
     21 C21        -1.8384    2.1740   46.1279 C.3     1  ZINC001078748831   -0.1000
     22 C22        -1.1294    1.3399   45.0603 C.3     1  ZINC001078748831   -0.1000
     23 C23        -2.3821    0.4450   45.0513 C.3     1  ZINC001078748831   -0.1400
     24 C24        -3.1672    1.6637   45.5692 C.3     1  ZINC001078748831   -0.1200
     25 N25        -3.6875    2.8484   51.8875 N.2     1  ZINC001078748831   -0.2500
     26 H26        -5.6740    4.3580   53.4646 H       1  ZINC001078748831    0.1000
     27 H27        -6.0961    2.7403   54.0754 H       1  ZINC001078748831    0.1100
     28 H28        -4.4564    3.3861   54.3256 H       1  ZINC001078748831    0.1100
     29 H29        -5.3102    1.1175   49.7029 H       1  ZINC001078748831    0.2100
     30 H30        -3.5188    2.3802   48.1333 H       1  ZINC001078748831    0.4100
     31 H31        -0.7383    3.9861   48.3033 H       1  ZINC001078748831    0.0700
     32 H32         0.3821    3.1158   47.1686 H       1  ZINC001078748831    0.1000
     33 H33        -0.0423    4.7859   45.4440 H       1  ZINC001078748831    0.3500
     34 H34        -2.6574    4.5391   44.1123 H       1  ZINC001078748831    0.1000
     35 H35        -1.9705    6.0066   44.8490 H       1  ZINC001078748831    0.0600
     36 H36        -2.8068    5.8369   41.7860 H       1  ZINC001078748831    0.2000
     37 H37        -0.9668    1.8743   44.1243 H       1  ZINC001078748831    0.1000
     38 H38        -0.2339    0.8353   45.4227 H       1  ZINC001078748831    0.0700
     39 H39        -2.6821    0.1250   44.0535 H       1  ZINC001078748831    0.0700
     40 H40        -2.3349   -0.3783   45.7641 H       1  ZINC001078748831    0.0800
     41 H41        -3.8995    1.4178   46.3383 H       1  ZINC001078748831    0.0700
     42 H42        -3.5774    2.2892   44.7763 H       1  ZINC001078748831    0.0900
@<TRIPOS>BOND
     1     1     2    1
     2     1    26    1
     3     1    27    1
     4     1    28    1
     5     2    25    1
     6     2     3    1
     7     3     4    2
     8     4     5    1
     9     4    29    1
    10     5     6    1
    11     5    25    2
    12     6     7    2
    13     6     8   am
    14     8     9    1
    15     8    30    1
    16     9    10    1
    17     9    21    1
    18     9    11    1
    19    11    12    1
    20    11    31    1
    21    11    32    1
    22    12    13    1
    23    12    14    1
    24    12    21    1
    25    14    15    1
    26    14    33    1
    27    15    16    1
    28    15    34    1
    29    15    35    1
    30    16    20    1
    31    16    17    2
    32    17    18    1
    33    18    19    1
    34    19    20    2
    35    20    36    1
    36    21    24    1
    37    21    22    1
    38    22    23    1
    39    22    37    1
    40    22    38    1
    41    23    24    1
    42    23    39    1
    43    23    40    1
    44    24    41    1
    45    24    42    1
@<TRIPOS>SUBSTRUCTURE
     1 ZINC001078748831        1 TEMP              0 ****  ****    0 ROOT


##########                                Name:    ZINC001058772245
##########                DOCK_Rotatable_Bonds:                  11
##########                         Heavy_Atoms:                  22
##########                    Molecular_Weight:             335.375
##########                DOCK_Rotatable_Bonds:                  11
##########                       Formal_Charge:          0.00999964
##########                     HBond_Acceptors:                   9
##########                        HBond_Donors:                   2
##########                         Heavy_Atoms:                  22
##########                          Grid_Score:          -30.667503
##########                     Grid_vdw_energy:          -29.793137
##########                      Grid_es_energy:           -0.874366
##########           Internal_energy_repulsive:           63.595486

@<TRIPOS>MOLECULE
ZINC001058772245
 41 41 1 0 0
SMALL
USER_CHARGES


@<TRIPOS>ATOM
      1 C1        -16.4069   -2.0527   51.3983 C.3     1  ZINC001058772245   -0.1700
      2 C2        -14.9290   -1.9045   51.7655 C.3     1  ZINC001058772245   -0.1400
      3 C3        -14.6773   -0.4966   52.3089 C.3     1  ZINC001058772245   -0.1500
      4 C4        -14.5686   -2.9210   52.8181 C.2     1  ZINC001058772245    0.5300
      5 O5        -15.4134   -3.6814   53.2411 O.2     1  ZINC001058772245   -0.5200
      6 N6        -13.3074   -2.9851   53.2891 N.am    1  ZINC001058772245   -0.5900
      7 C7        -12.2870   -2.0667   52.7780 C.3     1  ZINC001058772245    0.0800
      8 C8        -10.9767   -2.8273   52.5654 C.3     1  ZINC001058772245    0.0400
      9 O9        -10.0230   -1.9675   51.9384 O.3     1  ZINC001058772245   -0.5700
     10 C10       -12.9571   -3.9733   54.3123 C.3     1  ZINC001058772245    0.1100
     11 C11       -13.6530   -3.6151   55.6269 C.3     1  ZINC001058772245    0.1000
     12 N12       -12.6556   -3.1636   56.6003 N.am    1  ZINC001058772245   -0.7100
     13 C13       -11.8341   -4.0566   57.1870 C.2     1  ZINC001058772245    0.6000
     14 O14       -11.9198   -5.2372   56.9072 O.2     1  ZINC001058772245   -0.5300
     15 C15       -10.8326   -3.6030   58.1668 C.2     1  ZINC001058772245    0.0000
     16 C16       -10.5946   -2.2984   58.4306 C.2     1  ZINC001058772245   -0.2200
     17 S17        -9.3701   -2.1903   59.6185 S.3     1  ZINC001058772245    0.2300
     18 C18        -9.2465   -3.8919   59.6944 C.2     1  ZINC001058772245    0.0000
     19 N19       -10.0786   -4.4420   58.8818 N.2     1  ZINC001058772245   -0.4400
     20 C20       -14.0689   -2.1321   50.5209 C.3     1  ZINC001058772245    0.2900
     21 F21       -14.8564   -2.6836   49.5044 F       1  ZINC001058772245   -0.1900
     22 F22       -13.5396   -0.9108   50.0900 F       1  ZINC001058772245   -0.2000
     23 H23       -16.6011   -1.5369   50.4580 H       1  ZINC001058772245    0.0800
     24 H24       -16.6501   -3.1097   51.2899 H       1  ZINC001058772245    0.0700
     25 H25       -17.0224   -1.6172   52.1855 H       1  ZINC001058772245    0.0900
     26 H26       -15.0728   -0.4219   53.3218 H       1  ZINC001058772245    0.0800
     27 H27       -13.6056   -0.2984   52.3218 H       1  ZINC001058772245    0.0700
     28 H28       -15.1742    0.2336   51.6701 H       1  ZINC001058772245    0.0900
     29 H29       -12.6202   -1.6448   51.8297 H       1  ZINC001058772245    0.0900
     30 H30       -12.1283   -1.2632   53.4973 H       1  ZINC001058772245    0.1200
     31 H31       -10.5887   -3.1590   53.5286 H       1  ZINC001058772245    0.0600
     32 H32       -11.1585   -3.6935   51.9292 H       1  ZINC001058772245    0.0700
     33 H33       -10.3260   -1.5876   51.1023 H       1  ZINC001058772245    0.3800
     34 H34       -13.2802   -4.9624   53.9880 H       1  ZINC001058772245    0.1000
     35 H35       -11.8773   -3.9746   54.4615 H       1  ZINC001058772245    0.0900
     36 H36       -14.3751   -2.8179   55.4503 H       1  ZINC001058772245    0.0700
     37 H37       -14.1689   -4.4930   56.0159 H       1  ZINC001058772245    0.0700
     38 H38       -12.5864   -2.2220   56.8227 H       1  ZINC001058772245    0.4100
     39 H39       -11.0960   -1.4618   57.9669 H       1  ZINC001058772245    0.1900
     40 H40        -8.5670   -4.4312   60.3375 H       1  ZINC001058772245    0.2100
     41 H41       -13.2551   -2.8161   50.7616 H       1  ZINC001058772245    0.1200
@<TRIPOS>BOND
     1     1     2    1
     2     1    23    1
     3     1    24    1
     4     1    25    1
     5     2     3    1
     6     2     4    1
     7     2    20    1
     8     3    26    1
     9     3    27    1
    10     3    28    1
    11     4     5    2
    12     4     6   am
    13     6     7    1
    14     6    10    1
    15     7     8    1
    16     7    29    1
    17     7    30    1
    18     8     9    1
    19     8    31    1
    20     8    32    1
    21     9    33    1
    22    10    11    1
    23    10    34    1
    24    10    35    1
    25    11    12    1
    26    11    36    1
    27    11    37    1
    28    12    13   am
    29    12    38    1
    30    13    14    2
    31    13    15    1
    32    15    19    1
    33    15    16    2
    34    16    17    1
    35    16    39    1
    36    17    18    1
    37    18    19    2
    38    18    40    1
    39    20    21    1
    40    20    22    1
    41    20    41    1
@<TRIPOS>SUBSTRUCTURE
     1 ZINC001058772245        1 TEMP              0 ****  ****    0 ROOT


##########                                Name:    ZINC000493443319
##########                DOCK_Rotatable_Bonds:                   6
##########                         Heavy_Atoms:                  25
##########                    Molecular_Weight:             348.399
##########                DOCK_Rotatable_Bonds:                   6
##########                       Formal_Charge:        -3.27826e-07
##########                     HBond_Acceptors:                   7
##########                        HBond_Donors:                   0
##########                         Heavy_Atoms:                  25
##########                          Grid_Score:          -30.654716
##########                     Grid_vdw_energy:          -29.267292
##########                      Grid_es_energy:           -1.387424
##########           Internal_energy_repulsive:           51.154209

@<TRIPOS>MOLECULE
ZINC000493443319
 49 51 1 0 0
SMALL
USER_CHARGES


@<TRIPOS>ATOM
      1 C1        -17.2915   -1.7849   65.4698 C.3     1  <0>        -0.1500
      2 C2        -16.1412   -1.6691   64.4676 C.3     1  <0>         0.0500
      3 O3        -16.4331   -0.6358   63.5248 O.3     1  <0>        -0.3200
      4 C4        -15.5061   -0.4026   62.5577 C.ar    1  <0>         0.1000
      5 C5        -14.3428   -1.1569   62.5158 C.ar    1  <0>        -0.1700
      6 C6        -13.4011   -0.9201   61.5334 C.ar    1  <0>        -0.1100
      7 C7        -13.6190    0.0717   60.5885 C.ar    1  <0>         0.0800
      8 O8        -12.6917    0.3050   59.6216 O.3     1  <0>        -0.3000
      9 C9        -11.4364    0.8424   60.0428 C.3     1  <0>         0.1000
     10 C10       -10.8000    1.6177   58.8874 C.3     1  <0>        -0.1800
     11 C11       -11.6567    1.7839   61.2286 C.3     1  <0>        -0.1500
     12 C12       -10.5222   -0.2818   60.4571 C.2     1  <0>         0.5100
     13 O13        -9.9665   -0.2458   61.5345 O.2     1  <0>        -0.5200
     14 N14       -10.3222   -1.3271   59.6302 N.am    1  <0>        -0.6000
     15 C15        -9.4322   -2.4240   60.0309 C.3     1  <0>         0.0700
     16 C16       -10.2098   -3.7486   59.9709 C.3     1  <0>         0.1300
     17 N17       -10.9427   -3.7702   58.6973 N.am    1  <0>        -0.6300
     18 C18       -10.9324   -4.7114   57.7520 C.2     1  <0>         0.6500
     19 O19       -10.4125   -5.7993   57.9020 O.2     1  <0>        -0.5200
     20 O20       -11.5497   -4.3429   56.6213 O.3     1  <0>        -0.3200
     21 C21       -12.1412   -3.0217   56.7987 C.3     1  <0>         0.0500
     22 C22       -11.8215   -2.6643   58.2593 C.3     1  <0>         0.0800
     23 H23       -12.7260   -2.6057   58.8647 H       1  <0>         0.1100
     24 C24       -10.9998   -1.3764   58.3255 C.3     1  <0>         0.1000
     25 C25       -14.7828    0.8249   60.6296 C.ar    1  <0>        -0.1800
     26 C26       -15.7263    0.5855   61.6097 C.ar    1  <0>        -0.1100
     27 H27       -17.0689   -2.5731   66.1890 H       1  <0>         0.0800
     28 H28       -17.4126   -0.8375   65.9950 H       1  <0>         0.0700
     29 H29       -18.2125   -2.0266   64.9394 H       1  <0>         0.0700
     30 H30       -15.2201   -1.4275   64.9981 H       1  <0>         0.0600
     31 H31       -16.0202   -2.6166   63.9425 H       1  <0>         0.0600
     32 H32       -14.1732   -1.9290   63.2516 H       1  <0>         0.1400
     33 H33       -12.4950   -1.5069   61.5012 H       1  <0>         0.1400
     34 H34       -11.3949    2.5060   58.6748 H       1  <0>         0.0800
     35 H35        -9.7884    1.9154   59.1631 H       1  <0>         0.0900
     36 H36       -10.7635    0.9841   58.0012 H       1  <0>         0.0800
     37 H37       -12.1901    1.2548   62.0182 H       1  <0>         0.0800
     38 H38       -10.6925    2.1242   61.6063 H       1  <0>         0.0900
     39 H39       -12.2443    2.6433   60.9058 H       1  <0>         0.0900
     40 H40        -8.5813   -2.4696   59.3513 H       1  <0>         0.0800
     41 H41        -9.0793   -2.2541   61.0481 H       1  <0>         0.1300
     42 H42        -9.5156   -4.5880   60.0132 H       1  <0>         0.1100
     43 H43       -10.9114   -3.8045   60.8032 H       1  <0>         0.0800
     44 H44       -11.6818   -2.3030   56.1201 H       1  <0>         0.1100
     45 H45       -13.2193   -3.0615   56.6422 H       1  <0>         0.1100
     46 H46       -11.6579   -0.5140   58.2197 H       1  <0>         0.1100
     47 H47       -10.2561   -1.3728   57.5286 H       1  <0>         0.0800
     48 H48       -14.9527    1.5969   59.8936 H       1  <0>         0.1600
     49 H49       -16.6326    1.1721   61.6416 H       1  <0>         0.1300
@<TRIPOS>BOND
     1     1     2    1
     2     1    27    1
     3     1    28    1
     4     1    29    1
     5     2     3    1
     6     2    30    1
     7     2    31    1
     8     3     4    1
     9     4    26   ar
    10     4     5   ar
    11     5     6   ar
    12     5    32    1
    13     6     7   ar
    14     6    33    1
    15     7     8    1
    16     7    25   ar
    17     8     9    1
    18     9    10    1
    19     9    11    1
    20     9    12    1
    21    10    34    1
    22    10    35    1
    23    10    36    1
    24    11    37    1
    25    11    38    1
    26    11    39    1
    27    12    13    2
    28    12    14   am
    29    14    24    1
    30    14    15    1
    31    15    16    1
    32    15    40    1
    33    15    41    1
    34    16    17    1
    35    16    42    1
    36    16    43    1
    37    17    22    1
    38    17    18   am
    39    18    19    2
    40    18    20    1
    41    20    21    1
    42    21    22    1
    43    21    44    1
    44    21    45    1
    45    22    23    1
    46    22    24    1
    47    24    46    1
    48    24    47    1
    49    25    26   ar
    50    25    48    1
    51    26    49    1
@<TRIPOS>SUBSTRUCTURE
     1 <0>         1 TEMP              0 ****  ****    0 ROOT


##########                                Name:    ZINC000794876634
##########                DOCK_Rotatable_Bonds:                   4
##########                         Heavy_Atoms:                  24
##########                    Molecular_Weight:             389.249
##########                DOCK_Rotatable_Bonds:                   4
##########                       Formal_Charge:        -4.47035e-08
##########                     HBond_Acceptors:                   5
##########                        HBond_Donors:                   0
##########                         Heavy_Atoms:                  24
##########                          Grid_Score:          -30.634079
##########                     Grid_vdw_energy:          -30.731693
##########                      Grid_es_energy:            0.097615
##########           Internal_energy_repulsive:           16.518093

@<TRIPOS>MOLECULE
ZINC000794876634
 41 43 1 0 0
SMALL
USER_CHARGES


@<TRIPOS>ATOM
      1 C1         -9.3063   -0.2063   64.4615 C.3     1  ZINC000794876634    0.0200
      2 O2        -10.1871    0.5153   63.5981 O.3     1  ZINC000794876634   -0.3000
      3 C3        -10.4079   -0.0090   62.3650 C.ar    1  ZINC000794876634    0.1300
      4 C4         -9.8909   -1.2565   62.0407 C.ar    1  ZINC000794876634   -0.1800
      5 C5        -10.1107   -1.7938   60.7919 C.ar    1  ZINC000794876634   -0.0400
      6 C6         -9.5479   -3.1478   60.4440 C.3     1  ZINC000794876634   -0.1200
      7 C7        -10.8582   -1.0811   59.8450 C.ar    1  ZINC000794876634   -0.1000
      8 C8        -11.0945   -1.6500   58.5151 C.2     1  ZINC000794876634    0.0600
      9 C9        -12.2241   -2.3776   58.2750 C.2     1  ZINC000794876634   -0.1700
     10 C10       -13.3078   -2.6921   59.2218 C.2     1  ZINC000794876634    0.5700
     11 O11       -13.3638   -2.3441   60.3871 O.2     1  ZINC000794876634   -0.4900
     12 N12       -14.2237   -3.4301   58.5726 N.am    1  ZINC000794876634   -0.5300
     13 C13       -15.4550   -3.9383   59.1826 C.3     1  ZINC000794876634    0.0800
     14 C14       -13.8591   -3.6503   57.2534 C.ar    1  ZINC000794876634    0.3700
     15 N15       -14.4607   -4.3151   56.2748 N.ar    1  ZINC000794876634   -0.4900
     16 C16       -13.9361   -4.4063   55.0695 C.ar    1  ZINC000794876634    0.1800
     17 C17       -12.7259   -3.8112   54.7602 C.ar    1  ZINC000794876634   -0.1800
     18 Br18      -12.0015   -3.9612   53.0200 Br      1  ZINC000794876634   -0.0200
     19 C19       -12.0511   -3.1028   55.7439 C.ar    1  ZINC000794876634    0.0000
     20 C20       -12.6316   -3.0179   57.0050 C.ar    1  ZINC000794876634   -0.1400
     21 C21       -11.3797    0.1780   60.1743 C.ar    1  ZINC000794876634   -0.1400
     22 C22       -11.1582    0.7051   61.4300 C.ar    1  ZINC000794876634    0.0900
     23 O23       -11.6629    1.9259   61.7532 O.3     1  ZINC000794876634   -0.3000
     24 C24       -12.4689    2.5762   60.7685 C.3     1  ZINC000794876634    0.0200
     25 H25        -9.2176    0.3198   65.4120 H       1  ZINC000794876634    0.1000
     26 H26        -9.7058   -1.2055   64.6353 H       1  ZINC000794876634    0.0600
     27 H27        -8.3238   -0.2837   63.9959 H       1  ZINC000794876634    0.0600
     28 H28        -9.3146   -1.8066   62.7698 H       1  ZINC000794876634    0.1400
     29 H29       -10.2724   -3.9199   60.7033 H       1  ZINC000794876634    0.0800
     30 H30        -9.3382   -3.1905   59.3753 H       1  ZINC000794876634    0.0700
     31 H31        -8.6262   -3.3125   61.0021 H       1  ZINC000794876634    0.0700
     32 H32       -10.3748   -1.4937   57.7252 H       1  ZINC000794876634    0.1500
     33 H33       -15.5001   -3.6243   60.2254 H       1  ZINC000794876634    0.0900
     34 H34       -16.3169   -3.5415   58.6461 H       1  ZINC000794876634    0.0800
     35 H35       -15.4639   -5.0270   59.1301 H       1  ZINC000794876634    0.0800
     36 H36       -14.4628   -4.9585   54.3053 H       1  ZINC000794876634    0.1800
     37 H37       -11.1042   -2.6271   55.5351 H       1  ZINC000794876634    0.1600
     38 H38       -11.9566    0.7319   59.4485 H       1  ZINC000794876634    0.1400
     39 H39       -11.8592    2.8075   59.8951 H       1  ZINC000794876634    0.0500
     40 H40       -13.2872    1.9182   60.4765 H       1  ZINC000794876634    0.0600
     41 H41       -12.8749    3.4990   61.1829 H       1  ZINC000794876634    0.1100
@<TRIPOS>BOND
     1     1     2    1
     2     1    25    1
     3     1    26    1
     4     1    27    1
     5     2     3    1
     6     3    22   ar
     7     3     4   ar
     8     4     5   ar
     9     4    28    1
    10     5     6    1
    11     5     7   ar
    12     6    29    1
    13     6    30    1
    14     6    31    1
    15     7     8    1
    16     7    21   ar
    17     8     9    2
    18     8    32    1
    19     9    20    1
    20     9    10    1
    21    10    11    2
    22    10    12   am
    23    12    13    1
    24    12    14    1
    25    13    33    1
    26    13    34    1
    27    13    35    1
    28    14    20   ar
    29    14    15   ar
    30    15    16   ar
    31    16    17   ar
    32    16    36    1
    33    17    18    1
    34    17    19   ar
    35    19    20   ar
    36    19    37    1
    37    21    22   ar
    38    21    38    1
    39    22    23    1
    40    23    24    1
    41    24    39    1
    42    24    40    1
    43    24    41    1
@<TRIPOS>SUBSTRUCTURE
     1 ZINC000794876634        1 TEMP              0 ****  ****    0 ROOT


##########                                Name:    ZINC000416583757
##########                DOCK_Rotatable_Bonds:                   7
##########                         Heavy_Atoms:                  20
##########                    Molecular_Weight:             380.693
##########                DOCK_Rotatable_Bonds:                   7
##########                       Formal_Charge:         1.04308e-07
##########                     HBond_Acceptors:                   7
##########                        HBond_Donors:                   1
##########                         Heavy_Atoms:                  20
##########                          Grid_Score:          -30.632078
##########                     Grid_vdw_energy:          -30.317013
##########                      Grid_es_energy:           -0.315066
##########           Internal_energy_repulsive:            6.019670

@<TRIPOS>MOLECULE
ZINC000416583757
 35 35 1 0 0
SMALL
USER_CHARGES


@<TRIPOS>ATOM
      1 C1        -14.2249   -3.6000   54.8426 C.3     1  ZINC000416583757   -0.1500
      2 C2        -14.5841   -4.1845   56.2101 C.3     1  ZINC000416583757   -0.0200
      3 H3        -15.6682   -4.2464   56.3054 H       1  ZINC000416583757    0.1200
      4 C4        -14.0028   -5.5310   56.3362 C.1     1  ZINC000416583757    0.2100
      5 N5        -13.5541   -6.5701   56.4335 N.1     1  ZINC000416583757   -0.4200
      6 C6        -14.0259   -3.2827   57.3128 C.3     1  ZINC000416583757    0.1300
      7 N7        -15.1307   -2.6018   57.9926 N.am    1  ZINC000416583757   -1.0100
      8 C8        -15.8387   -1.5072   57.3242 C.3     1  ZINC000416583757    0.0800
      9 S9        -15.5790   -3.0692   59.5167 S.o2    1  ZINC000416583757    2.7800
     10 O10       -16.5565   -2.1340   59.9519 O.2     1  ZINC000416583757   -0.9700
     11 O11       -15.8163   -4.4688   59.4536 O.2     1  ZINC000416583757   -0.9700
     12 N12       -14.2629   -2.8619   60.5002 N.am    1  ZINC000416583757   -1.1300
     13 C13       -13.6701   -1.5318   60.6598 C.3     1  ZINC000416583757    0.1600
     14 C14       -12.2205   -1.6711   61.0474 C.ar    1  ZINC000416583757   -0.0800
     15 C15       -11.4177   -2.5911   60.4000 C.ar    1  ZINC000416583757   -0.0800
     16 C16       -10.0865   -2.7190   60.7553 C.ar    1  ZINC000416583757   -0.0300
     17 Cl17       -9.0779   -3.8743   59.9417 Cl      1  ZINC000416583757   -0.0500
     18 C18        -9.5595   -1.9259   61.7583 C.ar    1  ZINC000416583757   -0.0700
     19 C19       -10.3635   -1.0052   62.4058 C.ar    1  ZINC000416583757   -0.0800
     20 Br20       -9.6437    0.0796   63.7773 Br      1  ZINC000416583757   -0.0300
     21 C21       -11.6927   -0.8745   62.0464 C.ar    1  ZINC000416583757   -0.0700
     22 H22       -14.5147   -4.3013   54.0602 H       1  ZINC000416583757    0.0700
     23 H23       -14.7537   -2.6576   54.7000 H       1  ZINC000416583757    0.0800
     24 H24       -13.1502   -3.4246   54.7934 H       1  ZINC000416583757    0.0700
     25 H25       -13.4742   -3.8877   58.0324 H       1  ZINC000416583757    0.0900
     26 H26       -13.3581   -2.5420   56.8731 H       1  ZINC000416583757    0.1000
     27 H27       -16.6774   -1.9101   56.7563 H       1  ZINC000416583757    0.0700
     28 H28       -16.2093   -0.8047   58.0706 H       1  ZINC000416583757    0.0800
     29 H29       -15.1561   -0.9923   56.6480 H       1  ZINC000416583757    0.0800
     30 H30       -13.8846   -3.6211   60.9706 H       1  ZINC000416583757    0.4200
     31 H31       -13.7438   -0.9859   59.7192 H       1  ZINC000416583757    0.0800
     32 H32       -14.2038   -0.9871   61.4386 H       1  ZINC000416583757    0.1000
     33 H33       -11.8296   -3.2106   59.6171 H       1  ZINC000416583757    0.1500
     34 H34        -8.5205   -2.0255   62.0362 H       1  ZINC000416583757    0.1500
     35 H35       -12.3205   -0.1556   62.5520 H       1  ZINC000416583757    0.1400
@<TRIPOS>BOND
     1     1     2    1
     2     1    22    1
     3     1    23    1
     4     1    24    1
     5     2     3    1
     6     2     4    1
     7     2     6    1
     8     4     5    3
     9     6     7    1
    10     6    25    1
    11     6    26    1
    12     7     8    1
    13     7     9   am
    14     8    27    1
    15     8    28    1
    16     8    29    1
    17     9    10    2
    18     9    11    2
    19     9    12   am
    20    12    13    1
    21    12    30    1
    22    13    14    1
    23    13    31    1
    24    13    32    1
    25    14    21   ar
    26    14    15   ar
    27    15    16   ar
    28    15    33    1
    29    16    17    1
    30    16    18   ar
    31    18    19   ar
    32    18    34    1
    33    19    20    1
    34    19    21   ar
    35    21    35    1
@<TRIPOS>SUBSTRUCTURE
     1 ZINC000416583757        1 TEMP              0 ****  ****    0 ROOT


##########                                Name:    ZINC001456096501
##########                DOCK_Rotatable_Bonds:                   7
##########                         Heavy_Atoms:                  24
##########                    Molecular_Weight:             333.431
##########                DOCK_Rotatable_Bonds:                   7
##########                       Formal_Charge:          -0.0200003
##########                     HBond_Acceptors:                   6
##########                        HBond_Donors:                   0
##########                         Heavy_Atoms:                  24
##########                          Grid_Score:          -30.623028
##########                     Grid_vdw_energy:          -29.811199
##########                      Grid_es_energy:           -0.811828
##########           Internal_energy_repulsive:          159.754166

@<TRIPOS>MOLECULE
ZINC001456096501
 51 52 1 0 0
SMALL
USER_CHARGES


@<TRIPOS>ATOM
      1 C1        -14.9602   -3.7842   58.5527 C.3     1  ZINC001456096501    0.0400
      2 O2        -14.1425   -4.7780   57.9315 O.3     1  ZINC001456096501   -0.2900
      3 C3        -13.6670   -4.4978   56.6948 C.ar    1  ZINC001456096501    0.3700
      4 N4        -14.5070   -4.3640   55.6827 N.ar    1  ZINC001456096501   -0.5400
      5 C5        -14.0871   -4.0909   54.4623 C.ar    1  ZINC001456096501    0.1600
      6 C6        -12.7411   -3.9317   54.1869 C.ar    1  ZINC001456096501   -0.2200
      7 C7        -11.8174   -4.0610   55.2091 C.ar    1  ZINC001456096501   -0.0200
      8 C8        -12.2863   -4.3456   56.4965 C.ar    1  ZINC001456096501   -0.2000
      9 C9        -11.3451   -4.4932   57.6230 C.2     1  ZINC001456096501    0.5900
     10 O10       -11.0788   -5.5993   58.0518 O.2     1  ZINC001456096501   -0.5100
     11 N11       -10.7805   -3.4019   58.1768 N.am    1  ZINC001456096501   -0.6200
     12 C12        -9.8305   -3.4045   59.2989 C.3     1  ZINC001456096501    0.1000
     13 C13        -9.4777   -1.9335   59.6039 C.3     1  ZINC001456096501   -0.1200
     14 C14       -10.6815   -1.1567   59.0085 C.3     1  ZINC001456096501   -0.1200
     15 H15       -11.5203   -1.1426   59.7044 H       1  ZINC001456096501    0.0900
     16 C16       -10.2759    0.2649   58.6141 C.3     1  ZINC001456096501    0.1200
     17 N17       -11.3849    0.9108   57.9075 N.am    1  ZINC001456096501   -0.6200
     18 C18       -12.7683    0.6033   58.2789 C.3     1  ZINC001456096501    0.0600
     19 C19       -11.1325    1.7880   56.9159 C.2     1  ZINC001456096501    0.5200
     20 O20       -12.0505    2.3228   56.3310 O.2     1  ZINC001456096501   -0.5300
     21 C21        -9.7095    2.1044   56.5340 C.3     1  ZINC001456096501   -0.0800
     22 C22        -9.0870    0.8930   55.8368 C.3     1  ZINC001456096501   -0.1300
     23 C23        -9.6907    3.3043   55.5850 C.3     1  ZINC001456096501   -0.1500
     24 C24        -8.9055    2.4371   57.7926 C.3     1  ZINC001456096501   -0.1700
     25 C25       -11.0083   -2.0082   57.7536 C.3     1  ZINC001456096501    0.1200
     26 H26       -14.3913   -2.8606   58.6599 H       1  ZINC001456096501    0.0600
     27 H27       -15.8396   -3.5996   57.9357 H       1  ZINC001456096501    0.0600
     28 H28       -15.2734   -4.1342   59.5363 H       1  ZINC001456096501    0.1000
     29 H29       -14.8073   -3.9903   53.6639 H       1  ZINC001456096501    0.1700
     30 H30       -12.4137   -3.7087   53.1821 H       1  ZINC001456096501    0.1500
     31 H31       -10.7610   -3.9415   55.0187 H       1  ZINC001456096501    0.1500
     32 H32       -10.2909   -3.8644   60.1734 H       1  ZINC001456096501    0.0700
     33 H33        -8.9298   -3.9517   59.0207 H       1  ZINC001456096501    0.0700
     34 H34        -9.4064   -1.7690   60.6791 H       1  ZINC001456096501    0.0900
     35 H35        -8.5506   -1.6482   59.1068 H       1  ZINC001456096501    0.0800
     36 H36       -10.0347    0.8358   59.5107 H       1  ZINC001456096501    0.0800
     37 H37        -9.4032    0.2261   57.9623 H       1  ZINC001456096501    0.0900
     38 H38       -13.1161    1.3272   59.0158 H       1  ZINC001456096501    0.0600
     39 H39       -13.4019    0.6532   57.3934 H       1  ZINC001456096501    0.0900
     40 H40       -12.8161   -0.3993   58.7039 H       1  ZINC001456096501    0.0700
     41 H41        -9.6597    0.6559   54.9402 H       1  ZINC001456096501    0.0600
     42 H42        -8.0578    1.1218   55.5606 H       1  ZINC001456096501    0.0600
     43 H43        -9.1004    0.0381   56.5130 H       1  ZINC001456096501    0.0600
     44 H44       -10.2498    4.1278   56.0293 H       1  ZINC001456096501    0.0700
     45 H45        -8.6604    3.6156   55.4131 H       1  ZINC001456096501    0.0700
     46 H46       -10.1487    3.0244   54.6363 H       1  ZINC001456096501    0.0600
     47 H47        -8.9189    1.5822   58.4688 H       1  ZINC001456096501    0.0600
     48 H48        -7.8763    2.6659   57.5165 H       1  ZINC001456096501    0.0700
     49 H49        -9.3490    3.3001   58.2893 H       1  ZINC001456096501    0.0800
     50 H50       -10.3440   -1.7425   56.9313 H       1  ZINC001456096501    0.0800
     51 H51       -12.0493   -1.8694   57.4615 H       1  ZINC001456096501    0.0700
@<TRIPOS>BOND
     1     1     2    1
     2     1    26    1
     3     1    27    1
     4     1    28    1
     5     2     3    1
     6     3     8   ar
     7     3     4   ar
     8     4     5   ar
     9     5     6   ar
    10     5    29    1
    11     6     7   ar
    12     6    30    1
    13     7     8   ar
    14     7    31    1
    15     8     9    1
    16     9    10    2
    17     9    11   am
    18    11    25    1
    19    11    12    1
    20    12    13    1
    21    12    32    1
    22    12    33    1
    23    13    14    1
    24    13    34    1
    25    13    35    1
    26    14    15    1
    27    14    16    1
    28    14    25    1
    29    16    17    1
    30    16    36    1
    31    16    37    1
    32    17    18    1
    33    17    19   am
    34    18    38    1
    35    18    39    1
    36    18    40    1
    37    19    20    2
    38    19    21    1
    39    21    22    1
    40    21    23    1
    41    21    24    1
    42    22    41    1
    43    22    42    1
    44    22    43    1
    45    23    44    1
    46    23    45    1
    47    23    46    1
    48    24    47    1
    49    24    48    1
    50    24    49    1
    51    25    50    1
    52    25    51    1
@<TRIPOS>SUBSTRUCTURE
     1 ZINC001456096501        1 TEMP              0 ****  ****    0 ROOT


##########                                Name:    ZINC000863208514
##########                DOCK_Rotatable_Bonds:                   6
##########                         Heavy_Atoms:                  19
##########                    Molecular_Weight:             368.657
##########                DOCK_Rotatable_Bonds:                   6
##########                       Formal_Charge:           0.0100005
##########                     HBond_Acceptors:                   7
##########                        HBond_Donors:                   2
##########                         Heavy_Atoms:                  19
##########                          Grid_Score:          -30.608099
##########                     Grid_vdw_energy:          -26.577501
##########                      Grid_es_energy:           -4.030598
##########           Internal_energy_repulsive:            8.397041

@<TRIPOS>MOLECULE
ZINC000863208514
 31 31 1 0 0
SMALL
USER_CHARGES


@<TRIPOS>ATOM
      1 C1        -10.0090    2.0631   66.0872 C.3     1  ZINC000863208514    0.0900
      2 N2         -9.3669    0.7823   66.3928 N.am    1  ZINC000863208514   -0.6100
      3 C3         -8.7220    0.5778   67.6921 C.3     1  ZINC000863208514    0.0700
      4 C4         -9.3695   -0.2079   65.4784 C.2     1  ZINC000863208514    0.5100
      5 O5         -8.8393   -1.2688   65.7319 O.2     1  ZINC000863208514   -0.5400
      6 C6        -10.0314    0.0033   64.1411 C.3     1  ZINC000863208514    0.1100
      7 N7         -9.2446   -0.6579   63.0970 N.am    1  ZINC000863208514   -0.6600
      8 C8         -9.8407   -1.0610   61.9574 C.2     1  ZINC000863208514    0.5600
      9 S9        -11.5178   -0.8022   61.7308 S.2     1  ZINC000863208514   -0.6000
     10 N10        -9.1165   -1.6678   60.9963 N.am    1  ZINC000863208514   -0.6300
     11 C11        -9.7359   -2.0866   59.8120 C.ar    1  ZINC000863208514    0.1200
     12 C12        -9.9134   -1.1920   58.7664 C.ar    1  ZINC000863208514   -0.0300
     13 C13       -10.5249   -1.6081   57.5980 C.ar    1  ZINC000863208514   -0.0200
     14 Cl14      -10.7466   -0.4893   56.2893 Cl      1  ZINC000863208514   -0.0300
     15 C15       -10.9601   -2.9160   57.4705 C.ar    1  ZINC000863208514   -0.0600
     16 Br16      -11.7958   -3.4809   55.8710 Br      1  ZINC000863208514   -0.0100
     17 C17       -10.7843   -3.8110   58.5111 C.ar    1  ZINC000863208514   -0.1100
     18 C18       -10.1693   -3.4017   59.6798 C.ar    1  ZINC000863208514    0.1100
     19 F19        -9.9977   -4.2756   60.6957 F       1  ZINC000863208514   -0.1200
     20 H20        -9.9059    2.7339   66.9401 H       1  ZINC000863208514    0.0800
     21 H21        -9.5325    2.5094   65.2144 H       1  ZINC000863208514    0.0700
     22 H22       -11.0665    1.8992   65.8797 H       1  ZINC000863208514    0.0700
     23 H23        -9.4477    0.1748   68.3986 H       1  ZINC000863208514    0.0700
     24 H24        -7.8950   -0.1235   67.5809 H       1  ZINC000863208514    0.0800
     25 H25        -8.3434    1.5300   68.0637 H       1  ZINC000863208514    0.0800
     26 H26       -11.0357   -0.4198   64.1619 H       1  ZINC000863208514    0.1200
     27 H27       -10.0911    1.0709   63.9298 H       1  ZINC000863208514    0.1200
     28 H28        -8.2946   -0.8057   63.2260 H       1  ZINC000863208514    0.4100
     29 H29        -8.1662   -1.8144   61.1247 H       1  ZINC000863208514    0.4200
     30 H30        -9.5745   -0.1713   58.8650 H       1  ZINC000863208514    0.1800
     31 H31       -11.1248   -4.8309   58.4091 H       1  ZINC000863208514    0.1600
@<TRIPOS>BOND
     1     1     2    1
     2     1    20    1
     3     1    21    1
     4     1    22    1
     5     2     3    1
     6     2     4   am
     7     3    23    1
     8     3    24    1
     9     3    25    1
    10     4     5    2
    11     4     6    1
    12     6     7    1
    13     6    26    1
    14     6    27    1
    15     7     8   am
    16     7    28    1
    17     8     9    2
    18     8    10   am
    19    10    11    1
    20    10    29    1
    21    11    18   ar
    22    11    12   ar
    23    12    13   ar
    24    12    30    1
    25    13    14    1
    26    13    15   ar
    27    15    16    1
    28    15    17   ar
    29    17    18   ar
    30    17    31    1
    31    18    19    1
@<TRIPOS>SUBSTRUCTURE
     1 ZINC000863208514        1 TEMP              0 ****  ****    0 ROOT


##########                                Name:    ZINC000435292384
##########                DOCK_Rotatable_Bonds:                   6
##########                         Heavy_Atoms:                  22
##########                    Molecular_Weight:             326.503
##########                DOCK_Rotatable_Bonds:                   6
##########                       Formal_Charge:         -0.00999993
##########                     HBond_Acceptors:                   5
##########                        HBond_Donors:                   0
##########                         Heavy_Atoms:                  22
##########                          Grid_Score:          -30.607214
##########                     Grid_vdw_energy:          -30.283379
##########                      Grid_es_energy:           -0.323835
##########           Internal_energy_repulsive:           20.772289

@<TRIPOS>MOLECULE
ZINC000435292384
 52 53 1 0 0
SMALL
USER_CHARGES


@<TRIPOS>ATOM
      1 C1        -10.1645   -0.5574   62.5133 C.3     1  ZINC000435292384   -0.1500
      2 C2         -9.6756   -1.7204   61.6479 C.3     1  ZINC000435292384   -0.1200
      3 C3        -10.7486   -2.0745   60.6161 C.3     1  ZINC000435292384   -0.1400
      4 C4        -10.1740   -1.9140   59.2072 C.3     1  ZINC000435292384    0.1600
      5 H5         -9.1573   -2.3063   59.1827 H       1  ZINC000435292384    0.0900
      6 C6        -10.1580   -0.4317   58.8288 C.3     1  ZINC000435292384   -0.1700
      7 N7        -11.0056   -2.6526   58.2536 N.am    1  ZINC000435292384   -0.6100
      8 C8        -12.0898   -2.0557   57.4647 C.3     1  ZINC000435292384    0.1200
      9 C9        -12.3717   -3.0603   56.3255 C.3     1  ZINC000435292384   -0.1300
     10 H10       -11.7922   -2.8139   55.4359 H       1  ZINC000435292384    0.1100
     11 C11       -13.8439   -3.1167   56.0083 C.2     1  ZINC000435292384    0.5200
     12 O12       -14.6583   -2.8100   56.8529 O.2     1  ZINC000435292384   -0.5200
     13 N13       -14.2553   -3.5081   54.7860 N.am    1  ZINC000435292384   -0.6000
     14 C14       -15.7042   -3.5524   54.5077 C.3     1  ZINC000435292384    0.1000
     15 C15       -16.0446   -2.9944   53.1139 C.3     1  ZINC000435292384   -0.1300
     16 C16       -15.2104   -1.7701   52.8277 C.3     1  ZINC000435292384   -0.1100
     17 C17       -13.9316   -2.1868   52.1075 C.3     1  ZINC000435292384   -0.1200
     18 C18       -12.8423   -2.6080   53.0018 C.3     1  ZINC000435292384   -0.0700
     19 H19       -12.6122   -1.7995   53.6957 H       1  ZINC000435292384    0.0900
     20 S20       -11.3689   -2.9895   52.0148 S.3     1  ZINC000435292384   -0.2500
     21 C21       -10.3357   -1.5152   52.2373 C.3     1  ZINC000435292384   -0.1200
     22 C22       -13.2590   -3.8617   53.7998 C.3     1  ZINC000435292384    0.1400
     23 C23       -11.8880   -4.3895   56.9503 C.3     1  ZINC000435292384   -0.1400
     24 C24       -10.8699   -3.9625   57.9847 C.2     1  ZINC000435292384    0.5200
     25 O25       -10.0548   -4.6970   58.5014 O.2     1  ZINC000435292384   -0.5200
     26 H26        -9.4002   -0.3051   63.2484 H       1  ZINC000435292384    0.0500
     27 H27       -10.3605    0.3087   61.8812 H       1  ZINC000435292384    0.0500
     28 H28       -11.0812   -0.8470   63.0272 H       1  ZINC000435292384    0.0500
     29 H29        -8.7590   -1.4308   61.1340 H       1  ZINC000435292384    0.0600
     30 H30        -9.4796   -2.5865   62.2801 H       1  ZINC000435292384    0.0600
     31 H31       -11.0675   -3.1064   60.7631 H       1  ZINC000435292384    0.0800
     32 H32       -11.6033   -1.4093   60.7379 H       1  ZINC000435292384    0.0800
     33 H33       -11.1747   -0.0395   58.8534 H       1  ZINC000435292384    0.0700
     34 H34        -9.5393    0.1178   59.5383 H       1  ZINC000435292384    0.0700
     35 H35        -9.7488   -0.3173   57.8251 H       1  ZINC000435292384    0.0600
     36 H36       -12.9786   -1.9266   58.0823 H       1  ZINC000435292384    0.0900
     37 H37       -11.7732   -1.0975   57.0529 H       1  ZINC000435292384    0.0800
     38 H38       -16.0447   -4.5861   54.5679 H       1  ZINC000435292384    0.0700
     39 H39       -16.2276   -2.9646   55.2618 H       1  ZINC000435292384    0.0900
     40 H40       -15.8407   -3.7550   52.3603 H       1  ZINC000435292384    0.0700
     41 H41       -17.1011   -2.7281   53.0794 H       1  ZINC000435292384    0.0800
     42 H42       -15.7759   -1.0840   52.1972 H       1  ZINC000435292384    0.0700
     43 H43       -14.9553   -1.2765   53.7655 H       1  ZINC000435292384    0.0600
     44 H44       -14.1662   -3.0121   51.4353 H       1  ZINC000435292384    0.0800
     45 H45       -13.5820   -1.3458   51.5086 H       1  ZINC000435292384    0.0600
     46 H46       -10.8698   -0.6386   51.8710 H       1  ZINC000435292384    0.0800
     47 H47       -10.1091   -1.3867   53.2958 H       1  ZINC000435292384    0.0800
     48 H48        -9.4071   -1.6346   51.6789 H       1  ZINC000435292384    0.1000
     49 H49       -12.3864   -4.2790   54.3021 H       1  ZINC000435292384    0.0900
     50 H50       -13.6746   -4.6041   53.1183 H       1  ZINC000435292384    0.0900
     51 H51       -12.7192   -4.9142   57.4216 H       1  ZINC000435292384    0.1100
     52 H52       -11.4185   -5.0181   56.1938 H       1  ZINC000435292384    0.1100
@<TRIPOS>BOND
     1     1     2    1
     2     1    26    1
     3     1    27    1
     4     1    28    1
     5     2     3    1
     6     2    29    1
     7     2    30    1
     8     3     4    1
     9     3    31    1
    10     3    32    1
    11     4     5    1
    12     4     6    1
    13     4     7    1
    14     6    33    1
    15     6    34    1
    16     6    35    1
    17     7    24   am
    18     7     8    1
    19     8     9    1
    20     8    36    1
    21     8    37    1
    22     9    10    1
    23     9    11    1
    24     9    23    1
    25    11    12    2
    26    11    13   am
    27    13    22    1
    28    13    14    1
    29    14    15    1
    30    14    38    1
    31    14    39    1
    32    15    16    1
    33    15    40    1
    34    15    41    1
    35    16    17    1
    36    16    42    1
    37    16    43    1
    38    17    18    1
    39    17    44    1
    40    17    45    1
    41    18    19    1
    42    18    20    1
    43    18    22    1
    44    20    21    1
    45    21    46    1
    46    21    47    1
    47    21    48    1
    48    22    49    1
    49    22    50    1
    50    23    24    1
    51    23    51    1
    52    23    52    1
    53    24    25    2
@<TRIPOS>SUBSTRUCTURE
     1 ZINC000435292384        1 TEMP              0 ****  ****    0 ROOT


##########                                Name:    ZINC000535362552
##########                DOCK_Rotatable_Bonds:                   5
##########                         Heavy_Atoms:                  26
##########                    Molecular_Weight:             416.228
##########                DOCK_Rotatable_Bonds:                   5
##########                       Formal_Charge:         -0.00999981
##########                     HBond_Acceptors:                   6
##########                        HBond_Donors:                   1
##########                         Heavy_Atoms:                  26
##########                          Grid_Score:          -30.605169
##########                     Grid_vdw_energy:          -29.039936
##########                      Grid_es_energy:           -1.565234
##########           Internal_energy_repulsive:           25.365723

@<TRIPOS>MOLECULE
ZINC000535362552
 40 43 1 0 0
SMALL
USER_CHARGES


@<TRIPOS>ATOM
      1 C1        -10.6868    2.9578   67.6967 C.3     1  ZINC000535362552    0.0300
      2 O2         -9.9940    2.0614   68.6048 O.3     1  ZINC000535362552   -0.3400
      3 C3         -9.3856    0.9881   68.0602 C.2     1  ZINC000535362552    0.5500
      4 O4         -8.7240    0.2449   68.7589 O.2     1  ZINC000535362552   -0.4800
      5 C5         -9.5221    0.7171   66.6239 C.2     1  ZINC000535362552   -0.0100
      6 C6         -8.9470   -0.3239   65.9663 C.2     1  ZINC000535362552   -0.0900
      7 C7         -9.3545   -0.1944   64.5679 C.ar    1  ZINC000535362552   -0.1300
      8 C8         -9.1028   -0.9337   63.4099 C.ar    1  ZINC000535362552   -0.0600
      9 C9         -9.6565   -0.5295   62.2096 C.ar    1  ZINC000535362552    0.1200
     10 N10        -9.4098   -1.2654   61.0431 N.am    1  ZINC000535362552   -0.6700
     11 C11       -10.4401   -1.7225   60.3041 C.2     1  ZINC000535362552    0.5200
     12 O12       -11.5809   -1.4968   60.6489 O.2     1  ZINC000535362552   -0.5000
     13 C13       -10.1747   -2.5140   59.0495 C.3     1  ZINC000535362552   -0.1000
     14 H14        -9.6538   -1.9055   58.3102 H       1  ZINC000535362552    0.1300
     15 C15        -9.3778   -3.8016   59.3663 C.3     1  ZINC000535362552    0.0600
     16 O16        -9.9390   -4.7569   58.4501 O.3     1  ZINC000535362552   -0.2900
     17 C17       -11.2251   -4.4083   58.1706 C.ar    1  ZINC000535362552    0.1300
     18 C18       -12.2636   -5.1731   57.6459 C.ar    1  ZINC000535362552   -0.1300
     19 C19       -13.5038   -4.6078   57.4318 C.ar    1  ZINC000535362552   -0.0500
     20 C20       -13.7268   -3.2769   57.7356 C.ar    1  ZINC000535362552   -0.1200
     21 Br21      -15.4275   -2.5067   57.4347 Br      1  ZINC000535362552   -0.0400
     22 C22       -12.7002   -2.5108   58.2614 C.ar    1  ZINC000535362552   -0.0100
     23 C23       -11.4634   -3.0742   58.4794 C.ar    1  ZINC000535362552   -0.1600
     24 C24       -10.4601    0.6082   62.1570 C.ar    1  ZINC000535362552   -0.0900
     25 C25       -10.7128    1.3432   63.2938 C.ar    1  ZINC000535362552   -0.0900
     26 C26       -10.1665    0.9541   64.5112 C.ar    1  ZINC000535362552    0.0700
     27 O27       -10.2423    1.4608   65.7583 O.3     1  ZINC000535362552   -0.1700
     28 H28       -11.4713    2.4105   67.1741 H       1  ZINC000535362552    0.0700
     29 H29       -11.1306    3.7768   68.2628 H       1  ZINC000535362552    0.1100
     30 H30        -9.9788    3.3590   66.9717 H       1  ZINC000535362552    0.0700
     31 H31        -8.3162   -1.0911   66.3904 H       1  ZINC000535362552    0.1800
     32 H32        -8.4798   -1.8149   63.4520 H       1  ZINC000535362552    0.1400
     33 H33        -8.4974   -1.4459   60.7673 H       1  ZINC000535362552    0.4100
     34 H34        -8.3155   -3.6564   59.1701 H       1  ZINC000535362552    0.1200
     35 H35        -9.5418   -4.1134   60.3979 H       1  ZINC000535362552    0.0900
     36 H36       -12.0977   -6.2130   57.4058 H       1  ZINC000535362552    0.1400
     37 H37       -14.3045   -5.2073   57.0246 H       1  ZINC000535362552    0.1400
     38 H38       -12.8696   -1.4712   58.5002 H       1  ZINC000535362552    0.1400
     39 H39       -10.8886    0.9168   61.2148 H       1  ZINC000535362552    0.1500
     40 H40       -11.3366    2.2232   63.2395 H       1  ZINC000535362552    0.1500
@<TRIPOS>BOND
     1     1     2    1
     2     1    28    1
     3     1    29    1
     4     1    30    1
     5     2     3    1
     6     3     4    2
     7     3     5    1
     8     5    27    1
     9     5     6    2
    10     6     7    1
    11     6    31    1
    12     7    26   ar
    13     7     8   ar
    14     8     9   ar
    15     8    32    1
    16     9    10    1
    17     9    24   ar
    18    10    11   am
    19    10    33    1
    20    11    12    2
    21    11    13    1
    22    13    14    1
    23    13    23    1
    24    13    15    1
    25    15    16    1
    26    15    34    1
    27    15    35    1
    28    16    17    1
    29    17    23   ar
    30    17    18   ar
    31    18    19   ar
    32    18    36    1
    33    19    20   ar
    34    19    37    1
    35    20    21    1
    36    20    22   ar
    37    22    23   ar
    38    22    38    1
    39    24    25   ar
    40    24    39    1
    41    25    26   ar
    42    25    40    1
    43    26    27    1
@<TRIPOS>SUBSTRUCTURE
     1 ZINC000535362552        1 TEMP              0 ****  ****    0 ROOT


##########                                Name:    ZINC000430767928
##########                DOCK_Rotatable_Bonds:                   4
##########                         Heavy_Atoms:                  25
##########                    Molecular_Weight:             358.505
##########                DOCK_Rotatable_Bonds:                   4
##########                       Formal_Charge:          -0.0100002
##########                     HBond_Acceptors:                   5
##########                        HBond_Donors:                   0
##########                         Heavy_Atoms:                  25
##########                          Grid_Score:          -30.600876
##########                     Grid_vdw_energy:          -30.249376
##########                      Grid_es_energy:           -0.351500
##########           Internal_energy_repulsive:           19.978483

@<TRIPOS>MOLECULE
ZINC000430767928
 51 55 1 0 0
SMALL
USER_CHARGES


@<TRIPOS>ATOM
      1 O1        -13.7878   -0.7562   54.2175 O.2     1  ZINC000430767928   -0.4600
      2 C2        -13.1718   -1.7876   54.3799 C.2     1  ZINC000430767928    0.5300
      3 C3        -13.2243   -2.7076   55.5757 C.3     1  ZINC000430767928    0.0400
      4 H4        -14.1613   -3.2606   55.6429 H       1  ZINC000430767928    0.1400
      5 C5        -12.8749   -1.9619   56.8801 C.3     1  ZINC000430767928   -0.1100
      6 C6        -12.1943   -3.0700   57.7238 C.3     1  ZINC000430767928   -0.1000
      7 H7        -12.9130   -3.5206   58.4083 H       1  ZINC000430767928    0.1000
      8 C8        -11.0091   -2.4944   58.5015 C.3     1  ZINC000430767928   -0.0800
      9 C9        -11.4879   -1.3337   59.3758 C.3     1  ZINC000430767928   -0.1100
     10 C10       -10.3025   -0.7582   60.1534 C.3     1  ZINC000430767928   -0.1200
     11 C11        -9.6965   -1.8481   61.0398 C.3     1  ZINC000430767928   -0.1200
     12 C12        -9.2177   -3.0088   60.1655 C.3     1  ZINC000430767928   -0.1200
     13 C13       -10.4030   -3.5843   59.3879 C.3     1  ZINC000430767928   -0.1200
     14 C14       -11.7085   -4.1116   56.6927 C.3     1  ZINC000430767928    0.1600
     15 N15       -12.0397   -3.5846   55.3582 N.am    1  ZINC000430767928   -0.6400
     16 C16       -11.7493   -3.4783   54.0577 C.2     1  ZINC000430767928    0.7400
     17 O17       -11.0670   -4.2739   53.4423 O.2     1  ZINC000430767928   -0.5100
     18 N18       -12.2956   -2.3626   53.5264 N.am    1  ZINC000430767928   -0.5800
     19 C19       -11.9742   -1.8373   52.1972 C.3     1  ZINC000430767928    0.2600
     20 H20       -11.3026   -2.5275   51.6864 H       1  ZINC000430767928    0.1200
     21 C21       -13.2420   -1.6853   51.3970 C.2     1  ZINC000430767928   -0.2100
     22 C22       -14.2744   -2.5295   51.4243 C.2     1  ZINC000430767928   -0.1200
     23 C23       -15.3332   -2.1828   50.6027 C.2     1  ZINC000430767928   -0.1400
     24 C24       -15.1604   -1.0572   49.9081 C.2     1  ZINC000430767928   -0.2300
     25 S25       -13.5899   -0.3636   50.2898 S.3     1  ZINC000430767928    0.1700
     26 C26       -11.2937   -0.4742   52.3385 C.3     1  ZINC000430767928   -0.1700
     27 C27       -10.6181   -0.1570   53.6742 C.3     1  ZINC000430767928   -0.1700
     28 C28        -9.7670   -0.4538   52.4378 C.3     1  ZINC000430767928   -0.1600
     29 H29       -12.1824   -1.1431   56.6848 H       1  ZINC000430767928    0.0800
     30 H30       -13.7770   -1.5988   57.3726 H       1  ZINC000430767928    0.1000
     31 H31       -10.2551   -2.1349   57.8011 H       1  ZINC000430767928    0.0700
     32 H32       -11.9196   -0.5572   58.7442 H       1  ZINC000430767928    0.0600
     33 H33       -12.2417   -1.6933   60.0761 H       1  ZINC000430767928    0.0700
     34 H34        -9.5487   -0.3986   59.4529 H       1  ZINC000430767928    0.0600
     35 H35       -10.6436    0.0687   60.7761 H       1  ZINC000430767928    0.0600
     36 H36        -8.8521   -1.4381   61.5937 H       1  ZINC000430767928    0.0600
     37 H37       -10.4503   -2.2077   61.7401 H       1  ZINC000430767928    0.0600
     38 H38        -8.4638   -2.6493   59.4650 H       1  ZINC000430767928    0.0600
     39 H39        -8.7859   -3.7853   60.7969 H       1  ZINC000430767928    0.0600
     40 H40       -11.1569   -3.9440   60.0882 H       1  ZINC000430767928    0.0700
     41 H41       -10.0618   -4.4112   58.7650 H       1  ZINC000430767928    0.0600
     42 H42       -10.6321   -4.2557   56.7866 H       1  ZINC000430767928    0.0900
     43 H43       -12.2270   -5.0581   56.8457 H       1  ZINC000430767928    0.0800
     44 H44       -14.2835   -3.4163   52.0406 H       1  ZINC000430767928    0.1400
     45 H45       -16.2308   -2.7788   50.5293 H       1  ZINC000430767928    0.1400
     46 H46       -15.8770   -0.6345   49.2193 H       1  ZINC000430767928    0.1600
     47 H47       -11.7747    0.3485   51.8095 H       1  ZINC000430767928    0.1200
     48 H48       -10.6547    0.8745   54.0242 H       1  ZINC000430767928    0.1000
     49 H49       -10.6585   -0.9194   54.4521 H       1  ZINC000430767928    0.1000
     50 H50        -9.2475   -1.4113   52.4024 H       1  ZINC000430767928    0.1000
     51 H51        -9.2437    0.3827   51.9745 H       1  ZINC000430767928    0.1000
@<TRIPOS>BOND
     1     1     2    2
     2     2    18   am
     3     2     3    1
     4     3     4    1
     5     3    15    1
     6     3     5    1
     7     5     6    1
     8     5    29    1
     9     5    30    1
    10     6     7    1
    11     6     8    1
    12     6    14    1
    13     8    13    1
    14     8     9    1
    15     8    31    1
    16     9    10    1
    17     9    32    1
    18     9    33    1
    19    10    11    1
    20    10    34    1
    21    10    35    1
    22    11    12    1
    23    11    36    1
    24    11    37    1
    25    12    13    1
    26    12    38    1
    27    12    39    1
    28    13    40    1
    29    13    41    1
    30    14    15    1
    31    14    42    1
    32    14    43    1
    33    15    16   am
    34    16    17    2
    35    16    18   am
    36    18    19    1
    37    19    20    1
    38    19    21    1
    39    19    26    1
    40    21    25    1
    41    21    22    2
    42    22    23    1
    43    22    44    1
    44    23    24    2
    45    23    45    1
    46    24    25    1
    47    24    46    1
    48    26    28    1
    49    26    27    1
    50    26    47    1
    51    27    28    1
    52    27    48    1
    53    27    49    1
    54    28    50    1
    55    28    51    1
@<TRIPOS>SUBSTRUCTURE
     1 ZINC000430767928        1 TEMP              0 ****  ****    0 ROOT


##########                                Name:    ZINC000474368324
##########                DOCK_Rotatable_Bonds:                   9
##########                         Heavy_Atoms:                  27
##########                    Molecular_Weight:             417.332
##########                DOCK_Rotatable_Bonds:                   9
##########                       Formal_Charge:        -1.63913e-07
##########                     HBond_Acceptors:                   8
##########                        HBond_Donors:                   1
##########                         Heavy_Atoms:                  27
##########                          Grid_Score:          -30.562996
##########                     Grid_vdw_energy:          -28.891201
##########                      Grid_es_energy:           -1.671795
##########           Internal_energy_repulsive:           24.505812

@<TRIPOS>MOLECULE
ZINC000474368324
 53 54 1 0 0
SMALL
USER_CHARGES


@<TRIPOS>ATOM
      1 C1         -4.2032    2.9650   53.4967 C.3     1  ZINC000474368324   -0.1500
      2 C2         -4.5231    2.5938   52.0473 C.3     1  ZINC000474368324    0.0600
      3 O3         -5.8653    2.0449   51.9732 O.3     1  ZINC000474368324   -0.3300
      4 C4         -6.8844    2.9022   52.1407 C.2     1  ZINC000474368324    0.4700
      5 O5         -6.6915    4.0924   52.0637 O.2     1  ZINC000474368324   -0.5100
      6 C6         -8.2693    2.3801   52.4247 C.3     1  ZINC000474368324   -0.0400
      7 C7         -9.2886    3.1589   51.5907 C.3     1  ZINC000474368324    0.0600
      8 O8         -8.9789    3.0142   50.2033 O.3     1  ZINC000474368324   -0.3700
      9 C9         -9.7535    3.8533   49.3443 C.3     1  ZINC000474368324    0.0300
     10 C10        -8.3395    0.8956   52.0591 C.3     1  ZINC000474368324   -0.1200
     11 C11        -9.7577    0.3770   52.3165 C.3     1  ZINC000474368324    0.1100
     12 N12       -10.1246    0.6737   53.7079 N.am    1  ZINC000474368324   -0.6300
     13 C13       -10.5604   -0.3040   54.5267 C.2     1  ZINC000474368324    0.7100
     14 O14       -10.6530   -1.4447   54.1160 O.2     1  ZINC000474368324   -0.5800
     15 N15       -10.8935   -0.0175   55.8009 N.am    1  ZINC000474368324   -0.7400
     16 C16       -11.3672   -1.0802   56.6909 C.3     1  ZINC000474368324    0.2000
     17 H17       -10.8994   -2.0241   56.4110 H       1  ZINC000474368324    0.1100
     18 C18       -12.8869   -1.2082   56.5687 C.3     1  ZINC000474368324   -0.1600
     19 C19       -11.0044   -0.7425   58.1141 C.ar    1  ZINC000474368324   -0.0700
     20 C20       -11.1788    0.5452   58.5847 C.ar    1  ZINC000474368324   -0.1000
     21 C21       -10.8468    0.8558   59.8905 C.ar    1  ZINC000474368324   -0.0900
     22 C22       -10.3399   -0.1210   60.7265 C.ar    1  ZINC000474368324   -0.1000
     23 C23       -10.1646   -1.4106   60.2571 C.ar    1  ZINC000474368324   -0.0300
     24 Cl24       -9.5281   -2.6379   61.3068 Cl      1  ZINC000474368324   -0.0400
     25 C25       -10.5022   -1.7228   58.9512 C.ar    1  ZINC000474368324   -0.0300
     26 Cl26      -10.2834   -3.3406   58.3607 Cl      1  ZINC000474368324   -0.0400
     27 C27       -10.0068    2.0567   54.1900 C.3     1  ZINC000474368324    0.1300
     28 C28        -8.5857    2.5566   53.9116 C.3     1  ZINC000474368324   -0.1200
     29 H29        -3.1956    3.3771   53.5523 H       1  ZINC000474368324    0.0800
     30 H30        -4.9193    3.7077   53.8481 H       1  ZINC000474368324    0.0700
     31 H31        -4.2666    2.0746   54.1223 H       1  ZINC000474368324    0.0700
     32 H32        -4.4597    3.4842   51.4218 H       1  ZINC000474368324    0.0700
     33 H33        -3.8069    1.8511   51.6959 H       1  ZINC000474368324    0.0700
     34 H34       -10.2884    2.7693   51.7824 H       1  ZINC000474368324    0.0700
     35 H35        -9.2512    4.2136   51.8633 H       1  ZINC000474368324    0.0600
     36 H36       -10.8112    3.6182   49.4639 H       1  ZINC000474368324    0.0400
     37 H37        -9.5817    4.8976   49.6050 H       1  ZINC000474368324    0.0400
     38 H38        -9.4587    3.6842   48.3086 H       1  ZINC000474368324    0.0900
     39 H39        -8.0912    0.7683   51.0055 H       1  ZINC000474368324    0.1000
     40 H40        -7.6312    0.3366   52.6705 H       1  ZINC000474368324    0.0800
     41 H41       -10.4559    0.8716   51.6412 H       1  ZINC000474368324    0.0800
     42 H42        -9.7883   -0.7002   52.1524 H       1  ZINC000474368324    0.0800
     43 H43       -10.8194    0.8926   56.1285 H       1  ZINC000474368324    0.3900
     44 H44       -13.3547   -0.2643   56.8486 H       1  ZINC000474368324    0.0600
     45 H45       -13.1493   -1.4524   55.5393 H       1  ZINC000474368324    0.0700
     46 H46       -13.2394   -1.9989   57.2309 H       1  ZINC000474368324    0.0700
     47 H47       -11.5746    1.3093   57.9321 H       1  ZINC000474368324    0.1300
     48 H48       -10.9832    1.8625   60.2571 H       1  ZINC000474368324    0.1400
     49 H49       -10.0804    0.1224   61.7462 H       1  ZINC000474368324    0.1500
     50 H50       -10.7253    2.6883   53.6674 H       1  ZINC000474368324    0.0700
     51 H51       -10.2016    2.0879   55.2620 H       1  ZINC000474368324    0.1100
     52 H52        -7.8751    1.9818   54.5055 H       1  ZINC000474368324    0.0900
     53 H53        -8.5126    3.6113   54.1765 H       1  ZINC000474368324    0.0900
@<TRIPOS>BOND
     1     1     2    1
     2     1    29    1
     3     1    30    1
     4     1    31    1
     5     2     3    1
     6     2    32    1
     7     2    33    1
     8     3     4    1
     9     4     5    2
    10     4     6    1
    11     6    28    1
    12     6     7    1
    13     6    10    1
    14     7     8    1
    15     7    34    1
    16     7    35    1
    17     8     9    1
    18     9    36    1
    19     9    37    1
    20     9    38    1
    21    10    11    1
    22    10    39    1
    23    10    40    1
    24    11    12    1
    25    11    41    1
    26    11    42    1
    27    12    13   am
    28    12    27    1
    29    13    14    2
    30    13    15   am
    31    15    16    1
    32    15    43    1
    33    16    17    1
    34    16    18    1
    35    16    19    1
    36    18    44    1
    37    18    45    1
    38    18    46    1
    39    19    25   ar
    40    19    20   ar
    41    20    21   ar
    42    20    47    1
    43    21    22   ar
    44    21    48    1
    45    22    23   ar
    46    22    49    1
    47    23    24    1
    48    23    25   ar
    49    25    26    1
    50    27    28    1
    51    27    50    1
    52    27    51    1
    53    28    52    1
    54    28    53    1
@<TRIPOS>SUBSTRUCTURE
     1 ZINC000474368324        1 TEMP              0 ****  ****    0 ROOT


##########                                Name:    ZINC000431691749
##########                DOCK_Rotatable_Bonds:                   4
##########                         Heavy_Atoms:                  24
##########                    Molecular_Weight:             328.454
##########                DOCK_Rotatable_Bonds:                   4
##########                       Formal_Charge:         -0.00999957
##########                     HBond_Acceptors:                   4
##########                        HBond_Donors:                   0
##########                         Heavy_Atoms:                  24
##########                          Grid_Score:          -30.550158
##########                     Grid_vdw_energy:          -30.225748
##########                      Grid_es_energy:           -0.324409
##########           Internal_energy_repulsive:          132.129410

@<TRIPOS>MOLECULE
ZINC000431691749
 52 54 1 0 0
SMALL
USER_CHARGES


@<TRIPOS>ATOM
      1 C1        -10.3039    0.2212   53.9637 C.3     1  ZINC000431691749   -0.1200
      2 C2        -10.8775   -1.1530   53.7325 C.ar    1  ZINC000431691749   -0.0800
      3 C3        -10.8513   -1.7089   52.4674 C.ar    1  ZINC000431691749   -0.1200
      4 C4        -11.3775   -2.9696   52.2551 C.ar    1  ZINC000431691749   -0.1100
      5 C5        -11.9295   -3.6744   53.3083 C.ar    1  ZINC000431691749   -0.1100
      6 C6        -11.9550   -3.1187   54.5740 C.ar    1  ZINC000431691749   -0.0800
      7 C7        -12.5571   -3.8869   55.7222 C.3     1  ZINC000431691749    0.2000
      8 H8        -12.0221   -4.8278   55.8501 H       1  ZINC000431691749    0.1100
      9 N9        -12.4506   -3.0939   56.9494 N.am    1  ZINC000431691749   -0.5700
     10 C10       -12.9470   -1.8491   57.0919 C.2     1  ZINC000431691749    0.5200
     11 O11       -13.5434   -1.1989   56.2604 O.2     1  ZINC000431691749   -0.4400
     12 C12       -12.6055   -1.4314   58.5085 C.3     1  ZINC000431691749    0.0900
     13 H13       -11.9600   -0.5532   58.5042 H       1  ZINC000431691749    0.1300
     14 C14       -13.8793   -1.1572   59.3107 C.3     1  ZINC000431691749   -0.1500
     15 N15       -11.8891   -2.5989   59.0505 N.am    1  ZINC000431691749   -0.6000
     16 C16       -11.3298   -2.7346   60.3977 C.3     1  ZINC000431691749    0.1500
     17 C17        -9.8386   -3.1101   60.4108 C.3     1  ZINC000431691749   -0.1600
     18 C18        -9.5394   -1.6020   60.3808 C.3     1  ZINC000431691749   -0.1400
     19 C19       -10.9174   -1.3955   61.0313 C.3     1  ZINC000431691749   -0.1500
     20 C20       -11.8534   -3.5181   58.0690 C.2     1  ZINC000431691749    0.7000
     21 O21       -11.3307   -4.6093   58.1840 O.2     1  ZINC000431691749   -0.5300
     22 C22       -14.0306   -4.1740   55.4268 C.3     1  ZINC000431691749   -0.0700
     23 C23       -14.5548   -3.1569   54.4113 C.3     1  ZINC000431691749   -0.1400
     24 C24       -14.1700   -5.5856   54.8533 C.3     1  ZINC000431691749   -0.1400
     25 C25       -14.8404   -4.0669   56.7205 C.3     1  ZINC000431691749   -0.1600
     26 C26       -11.4250   -1.8601   54.7869 C.ar    1  ZINC000431691749   -0.1100
     27 H27        -9.2472    0.1359   54.2170 H       1  ZINC000431691749    0.0700
     28 H28       -10.4136    0.8178   53.0581 H       1  ZINC000431691749    0.0700
     29 H29       -10.8361    0.7038   54.7835 H       1  ZINC000431691749    0.0700
     30 H30       -10.4200   -1.1582   51.6444 H       1  ZINC000431691749    0.1200
     31 H31       -11.3576   -3.4037   51.2664 H       1  ZINC000431691749    0.1200
     32 H32       -12.3412   -4.6589   53.1424 H       1  ZINC000431691749    0.1100
     33 H33       -14.5000   -2.0531   59.3242 H       1  ZINC000431691749    0.0700
     34 H34       -13.6136   -0.8838   60.3319 H       1  ZINC000431691749    0.0800
     35 H35       -14.4313   -0.3395   58.8476 H       1  ZINC000431691749    0.0800
     36 H36       -11.9436   -3.3558   61.0502 H       1  ZINC000431691749    0.1000
     37 H37        -9.5198   -3.6003   61.3306 H       1  ZINC000431691749    0.0900
     38 H38        -9.5134   -3.6376   59.5141 H       1  ZINC000431691749    0.0700
     39 H39        -8.7065   -1.3093   61.0200 H       1  ZINC000431691749    0.0700
     40 H40        -9.4660   -1.1913   59.3737 H       1  ZINC000431691749    0.0800
     41 H41       -11.4631   -0.5389   60.6358 H       1  ZINC000431691749    0.1000
     42 H42       -10.8935   -1.4170   62.1209 H       1  ZINC000431691749    0.0900
     43 H43       -13.9779   -3.2332   53.4896 H       1  ZINC000431691749    0.0600
     44 H44       -15.6045   -3.3615   54.2008 H       1  ZINC000431691749    0.0600
     45 H45       -14.4555   -2.1512   54.8198 H       1  ZINC000431691749    0.0600
     46 H46       -13.7965   -6.3103   55.5768 H       1  ZINC000431691749    0.0500
     47 H47       -15.2197   -5.7902   54.6428 H       1  ZINC000431691749    0.0600
     48 H48       -13.5931   -5.6619   53.9317 H       1  ZINC000431691749    0.0500
     49 H49       -14.3208   -3.4135   57.4213 H       1  ZINC000431691749    0.0700
     50 H50       -15.8246   -3.6537   56.4999 H       1  ZINC000431691749    0.0400
     51 H51       -14.9527   -5.0572   57.1619 H       1  ZINC000431691749    0.1000
     52 H52       -11.4448   -1.4260   55.7757 H       1  ZINC000431691749    0.1300
@<TRIPOS>BOND
     1     1     2    1
     2     1    27    1
     3     1    28    1
     4     1    29    1
     5     2    26   ar
     6     2     3   ar
     7     3     4   ar
     8     3    30    1
     9     4     5   ar
    10     4    31    1
    11     5     6   ar
    12     5    32    1
    13     6     7    1
    14     6    26   ar
    15     7     8    1
    16     7     9    1
    17     7    22    1
    18     9    20   am
    19     9    10   am
    20    10    11    2
    21    10    12    1
    22    12    13    1
    23    12    14    1
    24    12    15    1
    25    14    33    1
    26    14    34    1
    27    14    35    1
    28    15    16    1
    29    15    20   am
    30    16    19    1
    31    16    17    1
    32    16    36    1
    33    17    18    1
    34    17    37    1
    35    17    38    1
    36    18    19    1
    37    18    39    1
    38    18    40    1
    39    19    41    1
    40    19    42    1
    41    20    21    2
    42    22    23    1
    43    22    24    1
    44    22    25    1
    45    23    43    1
    46    23    44    1
    47    23    45    1
    48    24    46    1
    49    24    47    1
    50    24    48    1
    51    25    49    1
    52    25    50    1
    53    25    51    1
    54    26    52    1
@<TRIPOS>SUBSTRUCTURE
     1 ZINC000431691749        1 TEMP              0 ****  ****    0 ROOT


##########                                Name:    ZINC000956479608
##########                DOCK_Rotatable_Bonds:                   5
##########                         Heavy_Atoms:                  25
##########                    Molecular_Weight:             345.442
##########                DOCK_Rotatable_Bonds:                   5
##########                       Formal_Charge:          -0.0100001
##########                     HBond_Acceptors:                   6
##########                        HBond_Donors:                   1
##########                         Heavy_Atoms:                  25
##########                          Grid_Score:          -30.539648
##########                     Grid_vdw_energy:          -30.286346
##########                      Grid_es_energy:           -0.253302
##########           Internal_energy_repulsive:           36.282368

@<TRIPOS>MOLECULE
ZINC000956479608
 52 55 1 0 0
SMALL
USER_CHARGES


@<TRIPOS>ATOM
      1 C1        -14.6943   -2.1471   59.8875 C.3     1  ZINC000956479608   -0.0900
      2 C2        -14.5008   -3.3529   59.0045 C.2     1  ZINC000956479608   -0.1100
      3 C3        -13.3756   -3.7269   58.3217 C.2     1  ZINC000956479608   -0.1000
      4 C4        -12.0792   -3.0237   58.2962 C.2     1  ZINC000956479608    0.6100
      5 O5        -11.1236   -3.5303   57.7408 O.2     1  ZINC000956479608   -0.5000
      6 N6        -11.9540   -1.8196   58.8886 N.am    1  ZINC000956479608   -0.7100
      7 C7        -10.6660   -1.1219   58.8649 C.3     1  ZINC000956479608    0.1800
      8 C8        -10.2518   -0.8656   57.4144 C.3     1  ZINC000956479608   -0.1700
      9 C9        -10.7958    0.2134   59.6012 C.3     1  ZINC000956479608   -0.1500
     10 C10       -11.2439   -0.0447   61.0432 C.3     1  ZINC000956479608    0.1100
     11 N11       -10.3077   -0.9895   61.6674 N.am    1  ZINC000956479608   -0.6100
     12 C12        -9.7058   -0.6895   62.8354 C.2     1  ZINC000956479608    0.5500
     13 O13        -8.9339   -1.4773   63.3397 O.2     1  ZINC000956479608   -0.5400
     14 C14        -9.9920    0.6249   63.5146 C.3     1  ZINC000956479608   -0.1900
     15 H15        -9.6278    1.5117   62.9959 H       1  ZINC000956479608    0.1200
     16 C16       -11.2983    0.7482   64.2879 C.3     1  ZINC000956479608   -0.1100
     17 H17       -11.9287   -0.1409   64.3030 H       1  ZINC000956479608    0.1000
     18 C18       -12.0593    2.0649   64.2828 C.3     1  ZINC000956479608   -0.0900
     19 C19       -11.1230    3.2261   64.6174 C.3     1  ZINC000956479608   -0.1200
     20 C20       -10.4294    2.9259   65.9511 C.3     1  ZINC000956479608   -0.1200
     21 C21        -9.3645    1.8545   65.7162 C.3     1  ZINC000956479608   -0.0900
     22 C22        -9.9841    0.6472   65.0510 C.3     1  ZINC000956479608   -0.1100
     23 H23        -9.8010   -0.3056   65.5478 H       1  ZINC000956479608    0.1100
     24 C24       -10.0406   -2.2679   60.9943 C.3     1  ZINC000956479608    0.1000
     25 C25        -9.6059   -1.9850   59.5529 C.3     1  ZINC000956479608   -0.1400
     26 O26       -13.6908   -4.8668   57.6781 O.3     1  ZINC000956479608    0.1200
     27 N27       -14.8333   -5.1964   57.8956 N.2     1  ZINC000956479608   -0.3400
     28 C28       -15.4369   -4.3641   58.6934 C.2     1  ZINC000956479608   -0.0100
     29 H29       -14.4238   -2.4003   60.9126 H       1  ZINC000956479608    0.0800
     30 H30       -14.0607   -1.3332   59.5350 H       1  ZINC000956479608    0.0900
     31 H31       -15.7383   -1.8357   59.8535 H       1  ZINC000956479608    0.0800
     32 H32       -12.7166   -1.4149   59.3307 H       1  ZINC000956479608    0.4100
     33 H33       -11.0070   -0.2514   56.9240 H       1  ZINC000956479608    0.0800
     34 H34        -9.2935   -0.3466   57.3965 H       1  ZINC000956479608    0.0700
     35 H35       -10.1599   -1.8165   56.8894 H       1  ZINC000956479608    0.0600
     36 H36        -9.8316    0.7218   59.6053 H       1  ZINC000956479608    0.0800
     37 H37       -11.5341    0.8368   59.0968 H       1  ZINC000956479608    0.1000
     38 H38       -11.2424    0.8925   61.5996 H       1  ZINC000956479608    0.0900
     39 H39       -12.2473   -0.4705   61.0434 H       1  ZINC000956479608    0.0600
     40 H40       -12.4932    2.2257   63.2959 H       1  ZINC000956479608    0.0700
     41 H41       -12.8578    2.0217   65.0235 H       1  ZINC000956479608    0.0700
     42 H42       -10.3751    3.3313   63.8316 H       1  ZINC000956479608    0.0600
     43 H43       -11.6990    4.1474   64.7036 H       1  ZINC000956479608    0.0700
     44 H44        -9.9587    3.8327   66.3311 H       1  ZINC000956479608    0.0700
     45 H45       -11.1624    2.5617   66.6710 H       1  ZINC000956479608    0.0700
     46 H46        -8.5832    2.2570   65.0715 H       1  ZINC000956479608    0.0700
     47 H47        -8.9276    1.5638   66.6715 H       1  ZINC000956479608    0.0700
     48 H48        -9.2451   -2.7976   61.5186 H       1  ZINC000956479608    0.0900
     49 H49       -10.9458   -2.8751   60.9905 H       1  ZINC000956479608    0.0700
     50 H50        -9.4973   -2.9263   59.0142 H       1  ZINC000956479608    0.0900
     51 H51        -8.6529   -1.4559   59.5575 H       1  ZINC000956479608    0.0900
     52 H52       -16.4566   -4.4294   59.0429 H       1  ZINC000956479608    0.2000
@<TRIPOS>BOND
     1     1     2    1
     2     1    29    1
     3     1    30    1
     4     1    31    1
     5     2    28    1
     6     2     3    2
     7     3     4    1
     8     3    26    1
     9     4     5    2
    10     4     6   am
    11     6     7    1
    12     6    32    1
    13     7    25    1
    14     7     8    1
    15     7     9    1
    16     8    33    1
    17     8    34    1
    18     8    35    1
    19     9    10    1
    20     9    36    1
    21     9    37    1
    22    10    11    1
    23    10    38    1
    24    10    39    1
    25    11    12   am
    26    11    24    1
    27    12    13    2
    28    12    14    1
    29    14    15    1
    30    14    22    1
    31    14    16    1
    32    16    17    1
    33    16    22    1
    34    16    18    1
    35    18    19    1
    36    18    40    1
    37    18    41    1
    38    19    20    1
    39    19    42    1
    40    19    43    1
    41    20    21    1
    42    20    44    1
    43    20    45    1
    44    21    22    1
    45    21    46    1
    46    21    47    1
    47    22    23    1
    48    24    25    1
    49    24    48    1
    50    24    49    1
    51    25    50    1
    52    25    51    1
    53    26    27    1
    54    27    28    2
    55    28    52    1
@<TRIPOS>SUBSTRUCTURE
     1 ZINC000956479608        1 TEMP              0 ****  ****    0 ROOT


##########                                Name:    ZINC001513543414
##########                DOCK_Rotatable_Bonds:                   6
##########                         Heavy_Atoms:                  26
##########                    Molecular_Weight:             364.488
##########                DOCK_Rotatable_Bonds:                   6
##########                       Formal_Charge:         -0.00999974
##########                     HBond_Acceptors:                   7
##########                        HBond_Donors:                   0
##########                         Heavy_Atoms:                  26
##########                          Grid_Score:          -30.513710
##########                     Grid_vdw_energy:          -29.920582
##########                      Grid_es_energy:           -0.593128
##########           Internal_energy_repulsive:           18.397741

@<TRIPOS>MOLECULE
ZINC001513543414
 58 61 1 0 0
SMALL
USER_CHARGES


@<TRIPOS>ATOM
      1 C1         -8.7675    2.0363   54.7708 C.3     1  ZINC001513543414   -0.1500
      2 C2         -9.0680    0.9572   55.8128 C.3     1  ZINC001513543414   -0.1200
      3 C3         -9.7925    1.5864   57.0044 C.3     1  ZINC001513543414    0.1100
      4 C4         -8.8595    2.5645   57.7213 C.3     1  ZINC001513543414   -0.1500
      5 C5        -11.0565    2.3269   56.5175 C.3     1  ZINC001513543414   -0.1500
      6 C6        -12.0838    1.9946   57.6338 C.3     1  ZINC001513543414   -0.1500
      7 C7        -11.6464    0.5588   58.0182 C.3     1  ZINC001513543414    0.0700
      8 H8        -12.0748   -0.1654   57.3254 H       1  ZINC001513543414    0.0800
      9 C9        -12.0749    0.2389   59.4518 C.3     1  ZINC001513543414    0.1100
     10 N10       -11.5677   -1.0824   59.8297 N.pl3   1  ZINC001513543414   -0.4600
     11 C11       -10.7275   -1.3784   60.8671 C.2     1  ZINC001513543414    0.1900
     12 C12       -10.1410   -0.3973   61.8492 C.3     1  ZINC001513543414    0.1800
     13 H13        -9.7584    0.4786   61.3253 H       1  ZINC001513543414    0.1000
     14 C14       -11.2076    0.0227   62.8917 C.3     1  ZINC001513543414   -0.1500
     15 C15       -10.3051    0.4440   64.0834 C.3     1  ZINC001513543414   -0.1500
     16 C16        -9.1209   -0.5389   63.9611 C.3     1  ZINC001513543414    0.0500
     17 O17        -9.0940   -1.0198   62.6107 O.3     1  ZINC001513543414   -0.3500
     18 N18       -10.5286   -2.6660   60.8495 N.2     1  ZINC001513543414   -0.2600
     19 N19       -11.1809   -3.1995   59.8791 N.2     1  ZINC001513543414   -0.3100
     20 C20       -11.8405   -2.2740   59.2232 C.2     1  ZINC001513543414    0.3400
     21 N21       -12.6536   -2.4686   58.1180 N.3     1  ZINC001513543414   -0.4500
     22 C22       -14.0231   -2.8458   58.5276 C.3     1  ZINC001513543414    0.0500
     23 C23       -14.5144   -3.8132   57.4221 C.3     1  ZINC001513543414   -0.1500
     24 C24       -13.2175   -4.5986   57.0939 C.3     1  ZINC001513543414    0.0700
     25 H25       -13.0678   -5.4104   57.8058 H       1  ZINC001513543414    0.0800
     26 O26       -13.2562   -5.1020   55.7570 O.3     1  ZINC001513543414   -0.3800
     27 C27       -14.3904   -5.9255   55.4787 C.3     1  ZINC001513543414    0.0300
     28 C28       -12.1154   -3.5291   57.2464 C.3     1  ZINC001513543414    0.0600
     29 O29       -10.2138    0.5623   57.9130 O.3     1  ZINC001513543414   -0.3600
     30 H30        -8.2514    1.5880   53.9218 H       1  ZINC001513543414    0.0500
     31 H31        -9.7016    2.4848   54.4324 H       1  ZINC001513543414    0.0500
     32 H32        -8.1355    2.8050   55.2156 H       1  ZINC001513543414    0.0600
     33 H33        -9.7000    0.1885   55.3680 H       1  ZINC001513543414    0.0700
     34 H34        -8.1339    0.5086   56.1511 H       1  ZINC001513543414    0.0600
     35 H35        -8.5651    3.3566   57.0328 H       1  ZINC001513543414    0.0700
     36 H36        -9.3770    2.9999   58.5762 H       1  ZINC001513543414    0.0600
     37 H37        -7.9719    2.0339   58.0656 H       1  ZINC001513543414    0.0700
     38 H38       -10.8793    3.4009   56.4605 H       1  ZINC001513543414    0.0900
     39 H39       -11.3887    1.9359   55.5557 H       1  ZINC001513543414    0.0800
     40 H40       -11.9804    2.6762   58.4782 H       1  ZINC001513543414    0.0800
     41 H41       -13.1024    2.0045   57.2459 H       1  ZINC001513543414    0.0900
     42 H42       -11.6695    0.9910   60.1285 H       1  ZINC001513543414    0.1000
     43 H43       -13.1631    0.2421   59.5149 H       1  ZINC001513543414    0.1100
     44 H44       -11.7998    0.8637   62.5308 H       1  ZINC001513543414    0.0900
     45 H45       -11.8464   -0.8184   63.1609 H       1  ZINC001513543414    0.0900
     46 H46        -9.9676    1.4742   63.9691 H       1  ZINC001513543414    0.0800
     47 H47       -10.8258    0.3082   65.0313 H       1  ZINC001513543414    0.0900
     48 H48        -8.1877   -0.0233   64.1873 H       1  ZINC001513543414    0.0700
     49 H49        -9.2602   -1.3729   64.6490 H       1  ZINC001513543414    0.0700
     50 H50       -14.0047   -3.3511   59.4933 H       1  ZINC001513543414    0.0600
     51 H51       -14.6624   -1.9640   58.5718 H       1  ZINC001513543414    0.0900
     52 H52       -15.2888   -4.4796   57.8022 H       1  ZINC001513543414    0.0800
     53 H53       -14.8686   -3.2627   56.5506 H       1  ZINC001513543414    0.0900
     54 H54       -14.3463   -6.2675   54.4447 H       1  ZINC001513543414    0.0900
     55 H55       -14.3868   -6.7867   56.1468 H       1  ZINC001513543414    0.0400
     56 H56       -15.3035   -5.3503   55.6325 H       1  ZINC001513543414    0.0400
     57 H57       -11.8634   -3.1145   56.2702 H       1  ZINC001513543414    0.1000
     58 H58       -11.2303   -3.9714   57.7036 H       1  ZINC001513543414    0.0900
@<TRIPOS>BOND
     1     1     2    1
     2     1    30    1
     3     1    31    1
     4     1    32    1
     5     2     3    1
     6     2    33    1
     7     2    34    1
     8     3    29    1
     9     3     4    1
    10     3     5    1
    11     4    35    1
    12     4    36    1
    13     4    37    1
    14     5     6    1
    15     5    38    1
    16     5    39    1
    17     6     7    1
    18     6    40    1
    19     6    41    1
    20     7     8    1
    21     7     9    1
    22     7    29    1
    23     9    10    1
    24     9    42    1
    25     9    43    1
    26    10    20    1
    27    10    11    1
    28    11    12    1
    29    11    18    2
    30    12    13    1
    31    12    17    1
    32    12    14    1
    33    14    15    1
    34    14    44    1
    35    14    45    1
    36    15    16    1
    37    15    46    1
    38    15    47    1
    39    16    17    1
    40    16    48    1
    41    16    49    1
    42    18    19    1
    43    19    20    2
    44    20    21    1
    45    21    28    1
    46    21    22    1
    47    22    23    1
    48    22    50    1
    49    22    51    1
    50    23    24    1
    51    23    52    1
    52    23    53    1
    53    24    25    1
    54    24    26    1
    55    24    28    1
    56    26    27    1
    57    27    54    1
    58    27    55    1
    59    27    56    1
    60    28    57    1
    61    28    58    1
@<TRIPOS>SUBSTRUCTURE
     1 ZINC001513543414        1 TEMP              0 ****  ****    0 ROOT


##########                                Name:    ZINC000426607143
##########                DOCK_Rotatable_Bonds:                   3
##########                         Heavy_Atoms:                  25
##########                    Molecular_Weight:             419.302
##########                DOCK_Rotatable_Bonds:                   3
##########                       Formal_Charge:         1.49012e-07
##########                     HBond_Acceptors:                   7
##########                        HBond_Donors:                   0
##########                         Heavy_Atoms:                  25
##########                          Grid_Score:          -30.475275
##########                     Grid_vdw_energy:          -29.892221
##########                      Grid_es_energy:           -0.583054
##########           Internal_energy_repulsive:           18.166386

@<TRIPOS>MOLECULE
ZINC000426607143
 40 43 1 0 0
SMALL
USER_CHARGES


@<TRIPOS>ATOM
      1 C1        -11.9323   -4.2777   53.2390 C.3     1  ZINC000426607143   -0.0900
      2 C2        -11.3270   -2.9071   53.0767 C.2     1  ZINC000426607143    0.1600
      3 N3        -10.5315   -2.6278   52.0901 N.2     1  ZINC000426607143   -0.4600
      4 S4        -10.0658   -1.0059   52.2539 S.3     1  ZINC000426607143    0.2900
      5 C5        -10.9689   -0.7065   53.6871 C.2     1  ZINC000426607143   -0.1300
      6 C6        -11.0518    0.5845   54.4601 C.3     1  ZINC000426607143   -0.0800
      7 C7        -11.5985   -1.8815   53.9726 C.2     1  ZINC000426607143   -0.1200
      8 C8        -12.4898   -2.0526   55.1456 C.2     1  ZINC000426607143    0.2500
      9 N9        -13.4609   -2.9213   55.2632 N.2     1  ZINC000426607143   -0.3700
     10 O10       -13.9967   -2.8033   56.3449 O.3     1  ZINC000426607143    0.0900
     11 C11       -13.4095   -1.8262   57.0428 C.2     1  ZINC000426607143    0.2000
     12 C12       -13.7808   -1.3697   58.4301 C.3     1  ZINC000426607143   -0.0300
     13 H13       -14.5602   -0.6092   58.3847 H       1  ZINC000426607143    0.1600
     14 C14       -14.2445   -2.5692   59.2887 C.3     1  ZINC000426607143   -0.1200
     15 C15       -13.6744   -2.2022   60.6767 C.3     1  ZINC000426607143    0.1000
     16 N16       -12.5264   -1.3276   60.4098 N.am    1  ZINC000426607143   -0.5800
     17 C17       -11.5218   -1.0370   61.3400 C.ar    1  ZINC000426607143    0.1700
     18 C18       -11.6895    0.0044   62.2423 C.ar    1  ZINC000426607143   -0.1000
     19 C19       -10.6960    0.2889   63.1594 C.ar    1  ZINC000426607143   -0.1000
     20 C20        -9.5353   -0.4620   63.1791 C.ar    1  ZINC000426607143   -0.1000
     21 C21        -9.3645   -1.5003   62.2817 C.ar    1  ZINC000426607143   -0.0900
     22 C22       -10.3567   -1.7940   61.3661 C.ar    1  ZINC000426607143   -0.0800
     23 Br23      -10.1226   -3.2139   60.1392 Br      1  ZINC000426607143   -0.0400
     24 C24       -12.5643   -0.8384   59.1558 C.2     1  ZINC000426607143    0.5300
     25 O25       -11.7415   -0.0857   58.6786 O.2     1  ZINC000426607143   -0.4900
     26 N26       -12.4474   -1.3435   56.2966 N.2     1  ZINC000426607143   -0.4600
     27 H27       -12.8819   -4.3209   52.7057 H       1  ZINC000426607143    0.0900
     28 H28       -11.2523   -5.0257   52.8313 H       1  ZINC000426607143    0.0800
     29 H29       -12.1004   -4.4777   54.2972 H       1  ZINC000426607143    0.1100
     30 H30       -10.4367    1.3405   53.9720 H       1  ZINC000426607143    0.0800
     31 H31       -12.0873    0.9233   54.4914 H       1  ZINC000426607143    0.0900
     32 H32       -10.6913    0.4233   55.4761 H       1  ZINC000426607143    0.0900
     33 H33       -15.3323   -2.6309   59.3176 H       1  ZINC000426607143    0.1100
     34 H34       -13.8120   -3.5007   58.9233 H       1  ZINC000426607143    0.1000
     35 H35       -14.4240   -1.6718   61.2641 H       1  ZINC000426607143    0.0900
     36 H36       -13.3500   -3.1010   61.2010 H       1  ZINC000426607143    0.0900
     37 H37       -12.5955    0.5920   62.2274 H       1  ZINC000426607143    0.1400
     38 H38       -10.8262    1.0990   63.8615 H       1  ZINC000426607143    0.1400
     39 H39        -8.7601   -0.2369   63.8966 H       1  ZINC000426607143    0.1400
     40 H40        -8.4566   -2.0850   62.2996 H       1  ZINC000426607143    0.1400
@<TRIPOS>BOND
     1     1     2    1
     2     1    27    1
     3     1    28    1
     4     1    29    1
     5     2     7    1
     6     2     3    2
     7     3     4    1
     8     4     5    1
     9     5     6    1
    10     5     7    2
    11     6    30    1
    12     6    31    1
    13     6    32    1
    14     7     8    1
    15     8    26    1
    16     8     9    2
    17     9    10    1
    18    10    11    1
    19    11    12    1
    20    11    26    2
    21    12    13    1
    22    12    24    1
    23    12    14    1
    24    14    15    1
    25    14    33    1
    26    14    34    1
    27    15    16    1
    28    15    35    1
    29    15    36    1
    30    16    17    1
    31    16    24   am
    32    17    22   ar
    33    17    18   ar
    34    18    19   ar
    35    18    37    1
    36    19    20   ar
    37    19    38    1
    38    20    21   ar
    39    20    39    1
    40    21    22   ar
    41    21    40    1
    42    22    23    1
    43    24    25    2
@<TRIPOS>SUBSTRUCTURE
     1 ZINC000426607143        1 TEMP              0 ****  ****    0 ROOT


##########                                Name:    ZINC000518234532
##########                DOCK_Rotatable_Bonds:                   5
##########                         Heavy_Atoms:                  25
##########                    Molecular_Weight:             408.267
##########                DOCK_Rotatable_Bonds:                   5
##########                       Formal_Charge:         -0.00999981
##########                     HBond_Acceptors:                   5
##########                        HBond_Donors:                   1
##########                         Heavy_Atoms:                  25
##########                          Grid_Score:          -30.466776
##########                     Grid_vdw_energy:          -29.000772
##########                      Grid_es_energy:           -1.466004
##########           Internal_energy_repulsive:           17.805555

@<TRIPOS>MOLECULE
ZINC000518234532
 44 46 1 0 0
SMALL
USER_CHARGES


@<TRIPOS>ATOM
      1 C1        -13.5751   -0.4081   55.1641 C.3     1  ZINC000518234532   -0.1600
      2 C2        -12.2703   -1.0584   54.6996 C.3     1  ZINC000518234532    0.1800
      3 H3        -12.4609   -1.6618   53.8120 H       1  ZINC000518234532    0.1100
      4 N4        -11.2917   -0.0160   54.3806 N.am    1  ZINC000518234532   -0.7300
      5 C5        -10.3705   -0.2278   53.4198 C.2     1  ZINC000518234532    0.5200
      6 O6        -10.3510   -1.2820   52.8203 O.2     1  ZINC000518234532   -0.5200
      7 C7         -9.3650    0.8452   53.0904 C.3     1  ZINC000518234532   -0.0700
      8 H8         -8.4498    0.3838   52.7190 H       1  ZINC000518234532    0.1100
      9 C9         -9.0528    1.6556   54.3499 C.3     1  ZINC000518234532   -0.1400
     10 C10        -9.9320    1.7577   52.0336 C.ar    1  ZINC000518234532   -0.1000
     11 C11       -11.2902    1.7601   51.7788 C.ar    1  ZINC000518234532   -0.0600
     12 C12       -11.8108    2.5972   50.8093 C.ar    1  ZINC000518234532   -0.1300
     13 C13       -10.9735    3.4322   50.0935 C.ar    1  ZINC000518234532   -0.0900
     14 C14        -9.6145    3.4311   50.3463 C.ar    1  ZINC000518234532   -0.1600
     15 C15        -9.0931    2.5982   51.3213 C.ar    1  ZINC000518234532    0.1000
     16 F16        -7.7650    2.5964   51.5693 F       1  ZINC000518234532   -0.1400
     17 C17       -11.7285   -1.9371   55.7975 C.ar    1  ZINC000518234532   -0.0600
     18 C18       -11.0534   -1.3727   56.8630 C.ar    1  ZINC000518234532   -0.1100
     19 C19       -10.5542   -2.1788   57.8753 C.ar    1  ZINC000518234532    0.0800
     20 C20       -10.7367   -3.5553   57.8166 C.ar    1  ZINC000518234532    0.0600
     21 C21       -11.4140   -4.1163   56.7442 C.ar    1  ZINC000518234532   -0.0800
     22 C22       -11.9126   -3.3070   55.7400 C.ar    1  ZINC000518234532   -0.0800
     23 Br23      -12.8366   -4.0749   54.2798 Br      1  ZINC000518234532   -0.0300
     24 O24       -10.2617   -4.3635   58.8034 O.3     1  ZINC000518234532   -0.3000
     25 C25        -9.2677   -3.8057   59.6697 C.3     1  ZINC000518234532    0.0200
     26 C26        -9.7316   -2.4059   60.0948 C.3     1  ZINC000518234532    0.0200
     27 O27        -9.8878   -1.6083   58.9163 O.3     1  ZINC000518234532   -0.3000
     28 H28       -13.9670    0.2275   54.3700 H       1  ZINC000518234532    0.0700
     29 H29       -14.3032   -1.1837   55.4015 H       1  ZINC000518234532    0.0700
     30 H30       -13.3845    0.1952   56.0517 H       1  ZINC000518234532    0.0600
     31 H31       -11.3066    0.8266   54.8609 H       1  ZINC000518234532    0.4000
     32 H32        -8.6426    0.9956   55.1144 H       1  ZINC000518234532    0.0700
     33 H33        -8.3255    2.4318   54.1117 H       1  ZINC000518234532    0.0700
     34 H34        -9.9679    2.1169   54.7213 H       1  ZINC000518234532    0.0700
     35 H35       -11.9452    1.1076   52.3370 H       1  ZINC000518234532    0.1300
     36 H36       -12.8723    2.5984   50.6109 H       1  ZINC000518234532    0.1300
     37 H37       -11.3812    4.0853   49.3362 H       1  ZINC000518234532    0.1300
     38 H38        -8.9605    4.0831   49.7864 H       1  ZINC000518234532    0.1400
     39 H39       -10.9140   -0.3027   56.9074 H       1  ZINC000518234532    0.1400
     40 H40       -11.5552   -5.1859   56.6951 H       1  ZINC000518234532    0.1500
     41 H41        -9.1511   -4.4375   60.5503 H       1  ZINC000518234532    0.1300
     42 H42        -8.3177   -3.7331   59.1404 H       1  ZINC000518234532    0.0800
     43 H43       -10.6846   -2.4778   60.6189 H       1  ZINC000518234532    0.0800
     44 H44        -8.9853   -1.9541   60.7483 H       1  ZINC000518234532    0.1300
@<TRIPOS>BOND
     1     1     2    1
     2     1    28    1
     3     1    29    1
     4     1    30    1
     5     2     3    1
     6     2     4    1
     7     2    17    1
     8     4     5   am
     9     4    31    1
    10     5     6    2
    11     5     7    1
    12     7     8    1
    13     7     9    1
    14     7    10    1
    15     9    32    1
    16     9    33    1
    17     9    34    1
    18    10    15   ar
    19    10    11   ar
    20    11    12   ar
    21    11    35    1
    22    12    13   ar
    23    12    36    1
    24    13    14   ar
    25    13    37    1
    26    14    15   ar
    27    14    38    1
    28    15    16    1
    29    17    22   ar
    30    17    18   ar
    31    18    19   ar
    32    18    39    1
    33    19    27    1
    34    19    20   ar
    35    20    21   ar
    36    20    24    1
    37    21    22   ar
    38    21    40    1
    39    22    23    1
    40    24    25    1
    41    25    26    1
    42    25    41    1
    43    25    42    1
    44    26    27    1
    45    26    43    1
    46    26    44    1
@<TRIPOS>SUBSTRUCTURE
     1 ZINC000518234532        1 TEMP              0 ****  ****    0 ROOT


##########                                Name:    ZINC000550011575
##########                DOCK_Rotatable_Bonds:                   6
##########                         Heavy_Atoms:                  28
##########                    Molecular_Weight:             423.935
##########                DOCK_Rotatable_Bonds:                   6
##########                       Formal_Charge:          -0.0100002
##########                     HBond_Acceptors:                   7
##########                        HBond_Donors:                   0
##########                         Heavy_Atoms:                  28
##########                          Grid_Score:          -30.451981
##########                     Grid_vdw_energy:          -29.965288
##########                      Grid_es_energy:           -0.486693
##########           Internal_energy_repulsive:           37.998657

@<TRIPOS>MOLECULE
ZINC000550011575
 51 53 1 0 0
SMALL
USER_CHARGES


@<TRIPOS>ATOM
      1 C1        -15.5836   -2.2993   57.5691 C.3     1  ZINC000550011575   -0.1400
      2 C2        -14.0783   -2.5715   57.5951 C.3     1  ZINC000550011575   -0.6100
      3 H3        -13.8682   -3.3853   58.2892 H       1  ZINC000550011575    0.1500
      4 C4        -13.6134   -2.9565   56.2142 C.2     1  ZINC000550011575    0.5400
      5 O5        -13.1606   -2.1130   55.4697 O.2     1  ZINC000550011575   -0.5100
      6 N6        -13.7012   -4.2381   55.8065 N.am    1  ZINC000550011575   -0.6000
      7 C7        -14.2500   -5.2567   56.7052 C.3     1  ZINC000550011575    0.0600
      8 C8        -13.2477   -4.6126   54.4648 C.3     1  ZINC000550011575    0.1500
      9 C9        -14.0072   -3.8144   53.4367 C.ar    1  ZINC000550011575   -0.1500
     10 C10       -15.3883   -3.8894   53.3837 C.ar    1  ZINC000550011575    0.1400
     11 F11       -16.0562   -4.6783   54.2538 F       1  ZINC000550011575   -0.1100
     12 C12       -16.0851   -3.1550   52.4388 C.ar    1  ZINC000550011575   -0.1500
     13 C13       -15.4017   -2.3479   51.5495 C.ar    1  ZINC000550011575   -0.0700
     14 C14       -14.0222   -2.2729   51.6024 C.ar    1  ZINC000550011575   -0.1300
     15 C15       -13.3249   -3.0019   52.5490 C.ar    1  ZINC000550011575    0.0000
     16 Cl16      -11.5928   -2.9065   52.6150 Cl      1  ZINC000550011575   -0.0500
     17 S17       -13.2025   -1.0767   58.1331 S.o2    1  ZINC000550011575    2.4500
     18 O18       -11.9306   -1.0447   57.5002 O.2     1  ZINC000550011575   -0.9200
     19 O19       -14.0760    0.0352   57.9917 O.2     1  ZINC000550011575   -0.9100
     20 C20       -12.9604   -1.4003   59.9014 C.3     1  ZINC000550011575   -0.5300
     21 H21       -13.7233   -2.0979   60.2470 H       1  ZINC000550011575    0.1500
     22 C22       -13.0886   -0.0899   60.6754 C.3     1  ZINC000550011575   -0.1100
     23 C23       -12.6690   -0.3426   62.1283 C.3     1  ZINC000550011575   -0.1100
     24 C24       -11.1618   -0.5879   62.1590 C.3     1  ZINC000550011575   -0.0900
     25 C25       -10.7766   -1.6426   61.1547 C.ar    1  ZINC000550011575   -0.0600
     26 C26        -9.5396   -2.2557   61.3033 C.ar    1  ZINC000550011575   -0.1200
     27 C27        -9.1263   -3.2254   60.4130 C.ar    1  ZINC000550011575   -0.1100
     28 C28        -9.9492   -3.5895   59.3638 C.ar    1  ZINC000550011575   -0.1100
     29 C29       -11.1798   -2.9831   59.2159 C.ar    1  ZINC000550011575   -0.1500
     30 C30       -11.5988   -2.0088   60.1132 C.ar    1  ZINC000550011575   -0.0800
     31 H31       -15.9493   -2.1821   58.5893 H       1  ZINC000550011575    0.0900
     32 H32       -15.7780   -1.3862   57.0064 H       1  ZINC000550011575    0.0900
     33 H33       -16.0959   -3.1354   57.0933 H       1  ZINC000550011575    0.0800
     34 H34       -15.3278   -5.3275   56.5591 H       1  ZINC000550011575    0.0700
     35 H35       -13.7895   -6.2202   56.4865 H       1  ZINC000550011575    0.0800
     36 H36       -14.0408   -4.9802   57.7385 H       1  ZINC000550011575    0.0700
     37 H37       -12.1817   -4.4055   54.3707 H       1  ZINC000550011575    0.1000
     38 H38       -13.4267   -5.6758   54.3043 H       1  ZINC000550011575    0.1100
     39 H39       -17.1627   -3.2133   52.3968 H       1  ZINC000550011575    0.1500
     40 H40       -15.9454   -1.7756   50.8125 H       1  ZINC000550011575    0.1500
     41 H41       -13.4890   -1.6421   50.9066 H       1  ZINC000550011575    0.1400
     42 H42       -12.4382    0.6638   60.2314 H       1  ZINC000550011575    0.0800
     43 H43       -14.1226    0.2538   60.6464 H       1  ZINC000550011575    0.0900
     44 H44       -12.9116    0.5283   62.7372 H       1  ZINC000550011575    0.0800
     45 H45       -13.1914   -1.2180   62.5142 H       1  ZINC000550011575    0.0700
     46 H46       -10.6416    0.3403   61.9228 H       1  ZINC000550011575    0.0800
     47 H47       -10.8717   -0.9182   63.1563 H       1  ZINC000550011575    0.0800
     48 H48        -8.8957   -1.9710   62.1222 H       1  ZINC000550011575    0.1300
     49 H49        -8.1628   -3.6980   60.5352 H       1  ZINC000550011575    0.1300
     50 H50        -9.6300   -4.3458   58.6620 H       1  ZINC000550011575    0.1300
     51 H51       -11.8219   -3.2677   58.3956 H       1  ZINC000550011575    0.1700
@<TRIPOS>BOND
     1     1     2    1
     2     1    31    1
     3     1    32    1
     4     1    33    1
     5     2     3    1
     6     2     4    1
     7     2    17    1
     8     4     5    2
     9     4     6   am
    10     6     7    1
    11     6     8    1
    12     7    34    1
    13     7    35    1
    14     7    36    1
    15     8     9    1
    16     8    37    1
    17     8    38    1
    18     9    15   ar
    19     9    10   ar
    20    10    11    1
    21    10    12   ar
    22    12    13   ar
    23    12    39    1
    24    13    14   ar
    25    13    40    1
    26    14    15   ar
    27    14    41    1
    28    15    16    1
    29    17    18    2
    30    17    19    2
    31    17    20    1
    32    20    21    1
    33    20    30    1
    34    20    22    1
    35    22    23    1
    36    22    42    1
    37    22    43    1
    38    23    24    1
    39    23    44    1
    40    23    45    1
    41    24    25    1
    42    24    46    1
    43    24    47    1
    44    25    30   ar
    45    25    26   ar
    46    26    27   ar
    47    26    48    1
    48    27    28   ar
    49    27    49    1
    50    28    29   ar
    51    28    50    1
    52    29    30   ar
    53    29    51    1
@<TRIPOS>SUBSTRUCTURE
     1 ZINC000550011575        1 TEMP              0 ****  ****    0 ROOT


##########                                Name:    ZINC000543020509
##########                DOCK_Rotatable_Bonds:                   5
##########                         Heavy_Atoms:                  26
##########                    Molecular_Weight:              366.81
##########                DOCK_Rotatable_Bonds:                   5
##########                       Formal_Charge:               -0.02
##########                     HBond_Acceptors:                   8
##########                        HBond_Donors:                   1
##########                         Heavy_Atoms:                  26
##########                          Grid_Score:          -30.405153
##########                     Grid_vdw_energy:          -29.377590
##########                      Grid_es_energy:           -1.027564
##########           Internal_energy_repulsive:           16.172525

@<TRIPOS>MOLECULE
ZINC000543020509
 41 43 1 0 0
SMALL
USER_CHARGES


@<TRIPOS>ATOM
      1 C1        -13.4970    1.3203   65.2961 C.3     1  ZINC000543020509    0.0800
      2 N2        -12.0560    1.5591   65.4095 N.pl3   1  ZINC000543020509   -0.6200
      3 C3        -11.5462    2.5026   66.4075 C.3     1  ZINC000543020509    0.0900
      4 C4        -11.1713    0.8894   64.5691 C.ar    1  ZINC000543020509    0.2500
      5 C5         -9.7943    0.9752   64.7672 C.ar    1  ZINC000543020509   -0.2200
      6 C6         -8.9449    0.2964   63.9130 C.ar    1  ZINC000543020509    0.1400
      7 N7         -9.4179   -0.4266   62.9200 N.ar    1  ZINC000543020509   -0.5000
      8 C8        -10.7225   -0.5373   62.6932 C.ar    1  ZINC000543020509    0.1100
      9 C9        -11.2030   -1.3640   61.5619 C.2     1  ZINC000543020509    0.5900
     10 O10       -12.3725   -1.3238   61.2335 O.2     1  ZINC000543020509   -0.5000
     11 N11       -10.3434   -2.1610   60.8967 N.am    1  ZINC000543020509   -0.6200
     12 C12       -10.7971   -2.9408   59.8268 C.2     1  ZINC000543020509    0.3200
     13 N13       -11.8350   -2.6771   59.0679 N.2     1  ZINC000543020509   -0.3100
     14 N14       -11.9516   -3.6976   58.1153 N.pl3   1  ZINC000543020509   -0.3300
     15 C15       -12.9292   -3.7863   57.1213 C.ar    1  ZINC000543020509    0.2200
     16 C16       -12.5623   -3.8114   55.7839 C.ar    1  ZINC000543020509   -0.1300
     17 C17       -13.5299   -3.8993   54.8019 C.ar    1  ZINC000543020509   -0.0500
     18 C18       -14.8714   -3.9626   55.1433 C.ar    1  ZINC000543020509   -0.0600
     19 Cl19      -16.0758   -4.0727   53.8979 Cl      1  ZINC000543020509   -0.0500
     20 C20       -15.2541   -3.9391   56.4691 C.ar    1  ZINC000543020509   -0.0400
     21 C21       -14.2859   -3.8561   57.4717 C.ar    1  ZINC000543020509   -0.0200
     22 C22       -14.6760   -3.8312   58.8492 C.1     1  ZINC000543020509    0.2500
     23 N23       -14.9856   -3.8116   59.9421 N.1     1  ZINC000543020509   -0.3800
     24 C24       -10.9455   -4.5855   58.3286 C.2     1  ZINC000543020509    0.0700
     25 C25       -10.2164   -4.1384   59.3756 C.2     1  ZINC000543020509   -0.2400
     26 C26       -11.6408    0.1110   63.5112 C.ar    1  ZINC000543020509   -0.1800
     27 H27       -13.9270    2.0242   64.5835 H       1  ZINC000543020509    0.0600
     28 H28       -13.6703    0.3013   64.9499 H       1  ZINC000543020509    0.0700
     29 H29       -13.9659    1.4576   66.2705 H       1  ZINC000543020509    0.0700
     30 H30       -12.3805    2.9254   66.9674 H       1  ZINC000543020509    0.0800
     31 H31       -10.8766    1.9814   67.0917 H       1  ZINC000543020509    0.0600
     32 H32       -11.0023    3.3031   65.9062 H       1  ZINC000543020509    0.0600
     33 H33        -9.3951    1.5657   65.5785 H       1  ZINC000543020509    0.1400
     34 H34        -7.8773    0.3605   64.0628 H       1  ZINC000543020509    0.1700
     35 H35        -9.4103   -2.1939   61.1595 H       1  ZINC000543020509    0.4300
     36 H36       -11.5189   -3.7621   55.5099 H       1  ZINC000543020509    0.1500
     37 H37       -13.2390   -3.9182   53.7620 H       1  ZINC000543020509    0.1500
     38 H38       -16.3007   -3.9888   56.7307 H       1  ZINC000543020509    0.1500
     39 H39       -10.7591   -5.4852   57.7609 H       1  ZINC000543020509    0.1900
     40 H40        -9.3455   -4.6198   59.7953 H       1  ZINC000543020509    0.1800
     41 H41       -12.7009    0.0196   63.3257 H       1  ZINC000543020509    0.1500
@<TRIPOS>BOND
     1     1     2    1
     2     1    27    1
     3     1    28    1
     4     1    29    1
     5     2     3    1
     6     2     4    1
     7     3    30    1
     8     3    31    1
     9     3    32    1
    10     4    26   ar
    11     4     5   ar
    12     5     6   ar
    13     5    33    1
    14     6     7   ar
    15     6    34    1
    16     7     8   ar
    17     8     9    1
    18     8    26   ar
    19     9    10    2
    20     9    11   am
    21    11    12    1
    22    11    35    1
    23    12    25    1
    24    12    13    2
    25    13    14    1
    26    14    15    1
    27    14    24    1
    28    15    21   ar
    29    15    16   ar
    30    16    17   ar
    31    16    36    1
    32    17    18   ar
    33    17    37    1
    34    18    19    1
    35    18    20   ar
    36    20    21   ar
    37    20    38    1
    38    21    22    1
    39    22    23    3
    40    24    25    2
    41    24    39    1
    42    25    40    1
    43    26    41    1
@<TRIPOS>SUBSTRUCTURE
     1 ZINC000543020509        1 TEMP              0 ****  ****    0 ROOT


##########                                Name:    ZINC000057429281
##########                DOCK_Rotatable_Bonds:                  10
##########                         Heavy_Atoms:                  23
##########                    Molecular_Weight:             331.295
##########                DOCK_Rotatable_Bonds:                  10
##########                       Formal_Charge:          -0.0100002
##########                     HBond_Acceptors:                   9
##########                        HBond_Donors:                   5
##########                         Heavy_Atoms:                  23
##########                          Grid_Score:          -30.401627
##########                     Grid_vdw_energy:          -29.876448
##########                      Grid_es_energy:           -0.525179
##########           Internal_energy_repulsive:            9.472078

@<TRIPOS>MOLECULE
ZINC000057429281
 39 39 1 0 0
SMALL
USER_CHARGES


@<TRIPOS>ATOM
      1 C1         -9.5726   -0.0416   56.7966 C.3     1  ZINC000057429281   -0.1500
      2 C2        -10.0846   -1.2575   57.5713 C.3     1  ZINC000057429281   -0.0400
      3 H3         -9.3972   -2.0921   57.4334 H       1  ZINC000057429281    0.0900
      4 C4        -11.4701   -1.6468   57.0521 C.3     1  ZINC000057429281   -0.1300
      5 C5        -11.3257   -2.6631   55.9487 C.2     1  ZINC000057429281    0.5200
      6 O6        -11.1540   -3.8325   56.2202 O.2     1  ZINC000057429281   -0.5300
      7 N7        -11.3875   -2.2724   54.6603 N.am    1  ZINC000057429281   -0.7000
      8 C8        -11.2454   -3.2601   53.5877 C.3     1  ZINC000057429281    0.1100
      9 C9        -12.5352   -4.0244   53.4346 C.2     1  ZINC000057429281    0.5200
     10 N10       -13.7122   -3.4163   53.6819 N.am    1  ZINC000057429281   -0.8500
     11 O11       -12.5139   -5.1866   53.0888 O.2     1  ZINC000057429281   -0.5100
     12 C12       -10.9226   -2.5553   52.2954 C.2     1  ZINC000057429281    0.5300
     13 N13       -11.9179   -2.1489   51.4825 N.am    1  ZINC000057429281   -0.8400
     14 O14        -9.7672   -2.3538   51.9867 O.2     1  ZINC000057429281   -0.5100
     15 C15       -10.1745   -0.9179   59.0368 C.ar    1  ZINC000057429281   -0.0500
     16 C16        -9.5158   -1.6979   59.9687 C.ar    1  ZINC000057429281   -0.1200
     17 C17        -9.5981   -1.3864   61.3130 C.ar    1  ZINC000057429281   -0.0700
     18 C18       -10.3388   -0.2945   61.7253 C.ar    1  ZINC000057429281   -0.1900
     19 C19       -10.4290    0.0450   63.1908 C.3     1  ZINC000057429281    0.5100
     20 F20       -11.6831   -0.3342   63.6812 F       1  ZINC000057429281   -0.1800
     21 F21        -9.4286   -0.6385   63.8902 F       1  ZINC000057429281   -0.1800
     22 F22       -10.2588    1.4232   63.3615 F       1  ZINC000057429281   -0.1800
     23 C23       -10.9964    0.4864   60.7933 C.ar    1  ZINC000057429281   -0.0700
     24 C24       -10.9109    0.1771   59.4487 C.ar    1  ZINC000057429281   -0.1100
     25 H25        -8.5855    0.2357   57.1664 H       1  ZINC000057429281    0.0600
     26 H26        -9.5075   -0.2873   55.7366 H       1  ZINC000057429281    0.0800
     27 H27       -10.2600    0.7930   56.9345 H       1  ZINC000057429281    0.0500
     28 H28       -12.0560   -2.0744   57.8656 H       1  ZINC000057429281    0.1000
     29 H29       -11.9756   -0.7614   56.6667 H       1  ZINC000057429281    0.1000
     30 H30       -11.5260   -1.3372   54.4432 H       1  ZINC000057429281    0.4200
     31 H31       -10.4403   -3.9519   53.8352 H       1  ZINC000057429281    0.1300
     32 H32       -14.5425   -3.9081   53.5833 H       1  ZINC000057429281    0.4000
     33 H33       -13.7291   -2.4867   53.9586 H       1  ZINC000057429281    0.4100
     34 H34       -11.7101   -1.6953   50.6507 H       1  ZINC000057429281    0.4000
     35 H35       -12.8420   -2.3100   51.7295 H       1  ZINC000057429281    0.4100
     36 H36        -8.9370   -2.5510   59.6467 H       1  ZINC000057429281    0.1400
     37 H37        -9.0840   -1.9962   62.0412 H       1  ZINC000057429281    0.1400
     38 H38       -11.5748    1.3398   61.1153 H       1  ZINC000057429281    0.1400
     39 H39       -11.4246    0.7872   58.7205 H       1  ZINC000057429281    0.1400
@<TRIPOS>BOND
     1     1     2    1
     2     1    25    1
     3     1    26    1
     4     1    27    1
     5     2     3    1
     6     2     4    1
     7     2    15    1
     8     4     5    1
     9     4    28    1
    10     4    29    1
    11     5     6    2
    12     5     7   am
    13     7     8    1
    14     7    30    1
    15     8     9    1
    16     8    12    1
    17     8    31    1
    18     9    10   am
    19     9    11    2
    20    10    32    1
    21    10    33    1
    22    12    13   am
    23    12    14    2
    24    13    34    1
    25    13    35    1
    26    15    24   ar
    27    15    16   ar
    28    16    17   ar
    29    16    36    1
    30    17    18   ar
    31    17    37    1
    32    18    19    1
    33    18    23   ar
    34    19    20    1
    35    19    21    1
    36    19    22    1
    37    23    24   ar
    38    23    38    1
    39    24    39    1
@<TRIPOS>SUBSTRUCTURE
     1 ZINC000057429281        1 TEMP              0 ****  ****    0 ROOT


##########                                Name:    ZINC001098311495
##########                DOCK_Rotatable_Bonds:                   8
##########                         Heavy_Atoms:                  24
##########                    Molecular_Weight:             328.454
##########                DOCK_Rotatable_Bonds:                   8
##########                       Formal_Charge:          0.00999987
##########                     HBond_Acceptors:                   4
##########                        HBond_Donors:                   1
##########                         Heavy_Atoms:                  24
##########                          Grid_Score:          -30.345762
##########                     Grid_vdw_energy:          -29.614271
##########                      Grid_es_energy:           -0.731491
##########           Internal_energy_repulsive:           27.555298

@<TRIPOS>MOLECULE
ZINC001098311495
 52 54 1 0 0
SMALL
USER_CHARGES


@<TRIPOS>ATOM
      1 C1         -9.1171    2.8300   57.6504 C.3     1  ZINC001098311495   -0.1500
      2 C2        -10.5379    2.9407   58.2072 C.3     1  ZINC001098311495    0.0500
      3 O3        -11.1851    1.6698   58.1172 O.3     1  ZINC001098311495   -0.2800
      4 C4        -10.6520    0.6546   58.8420 C.ar    1  ZINC001098311495    0.1900
      5 C5        -10.5981    0.7396   60.2251 C.ar    1  ZINC001098311495   -0.2200
      6 C6        -10.0492   -0.2919   60.9612 C.ar    1  ZINC001098311495   -0.0500
      7 C7         -9.5554   -1.4198   60.3269 C.ar    1  ZINC001098311495   -0.1700
      8 C8         -9.6065   -1.5238   58.9535 C.ar    1  ZINC001098311495   -0.0500
      9 C9        -10.1586   -0.4878   58.1968 C.ar    1  ZINC001098311495   -0.1800
     10 C10       -10.2165   -0.5926   56.7262 C.2     1  ZINC001098311495    0.5600
     11 O11        -9.4133    0.0114   56.0416 O.2     1  ZINC001098311495   -0.5200
     12 N12       -11.1596   -1.3576   56.1417 N.am    1  ZINC001098311495   -0.7200
     13 C13       -11.2160   -1.4630   54.6816 C.3     1  ZINC001098311495    0.1600
     14 H14       -10.2500   -1.2137   54.2425 H       1  ZINC001098311495    0.1000
     15 C15       -12.3294   -0.5503   54.1119 C.3     1  ZINC001098311495   -0.1200
     16 C16       -13.2991   -1.5509   53.4136 C.3     1  ZINC001098311495    0.0500
     17 H17       -14.3152   -1.1894   53.2562 H       1  ZINC001098311495    0.1100
     18 C18       -12.5529   -2.0394   52.1355 C.3     1  ZINC001098311495   -0.1500
     19 C19       -11.4406   -2.9596   52.6952 C.3     1  ZINC001098311495   -0.1500
     20 C20       -11.6616   -2.8932   54.2515 C.3     1  ZINC001098311495    0.0400
     21 H21       -11.2380   -3.7201   54.8215 H       1  ZINC001098311495    0.1200
     22 N22       -13.1609   -2.7564   54.3063 N.3     1  ZINC001098311495   -0.4900
     23 C23       -13.8184   -3.9287   53.7135 C.3     1  ZINC001098311495    0.0600
     24 C24       -13.7389   -5.0881   54.6730 C.2     1  ZINC001098311495   -0.1600
     25 C25       -14.3131   -5.0066   55.8477 C.2     1  ZINC001098311495   -0.1200
     26 C26       -15.0531   -3.7537   56.2394 C.3     1  ZINC001098311495   -0.1200
     27 C27       -14.2336   -6.1660   56.8072 C.3     1  ZINC001098311495   -0.1200
     28 H28        -8.5566    2.0951   58.2283 H       1  ZINC001098311495    0.0700
     29 H29        -9.1590    2.5167   56.6073 H       1  ZINC001098311495    0.0700
     30 H30        -8.6234    3.7993   57.7191 H       1  ZINC001098311495    0.0800
     31 H31       -11.0983    3.6755   57.6293 H       1  ZINC001098311495    0.0600
     32 H32       -10.4959    3.2540   59.2503 H       1  ZINC001098311495    0.0600
     33 H33       -10.9815    1.6157   60.7269 H       1  ZINC001098311495    0.1300
     34 H34       -10.0051   -0.2189   62.0378 H       1  ZINC001098311495    0.1300
     35 H35        -9.1286   -2.2216   60.9112 H       1  ZINC001098311495    0.1300
     36 H36        -9.2199   -2.4050   58.4631 H       1  ZINC001098311495    0.1300
     37 H37       -11.8011   -1.8385   56.6878 H       1  ZINC001098311495    0.4000
     38 H38       -11.9167    0.1525   53.3880 H       1  ZINC001098311495    0.0800
     39 H39       -12.8393   -0.0195   54.9157 H       1  ZINC001098311495    0.0800
     40 H40       -13.2268   -2.6015   51.4890 H       1  ZINC001098311495    0.0700
     41 H41       -12.1190   -1.1959   51.5985 H       1  ZINC001098311495    0.0800
     42 H42       -11.5632   -3.9779   52.3261 H       1  ZINC001098311495    0.0700
     43 H43       -10.4553   -2.5724   52.4356 H       1  ZINC001098311495    0.0800
     44 H44       -13.3183   -4.1933   52.7818 H       1  ZINC001098311495    0.0500
     45 H45       -14.8638   -3.6954   53.5112 H       1  ZINC001098311495    0.0800
     46 H46       -13.2087   -5.9861   54.3922 H       1  ZINC001098311495    0.1100
     47 H47       -14.3660   -3.0643   56.7301 H       1  ZINC001098311495    0.0700
     48 H48       -15.8624   -4.0086   56.9236 H       1  ZINC001098311495    0.0600
     49 H49       -15.4661   -3.2819   55.3479 H       1  ZINC001098311495    0.0600
     50 H50       -15.0284   -6.8776   56.5839 H       1  ZINC001098311495    0.0700
     51 H51       -13.2663   -6.6575   56.7038 H       1  ZINC001098311495    0.0600
     52 H52       -14.3486   -5.8013   57.8279 H       1  ZINC001098311495    0.0600
@<TRIPOS>BOND
     1     1     2    1
     2     1    28    1
     3     1    29    1
     4     1    30    1
     5     2     3    1
     6     2    31    1
     7     2    32    1
     8     3     4    1
     9     4     9   ar
    10     4     5   ar
    11     5     6   ar
    12     5    33    1
    13     6     7   ar
    14     6    34    1
    15     7     8   ar
    16     7    35    1
    17     8     9   ar
    18     8    36    1
    19     9    10    1
    20    10    11    2
    21    10    12   am
    22    12    13    1
    23    12    37    1
    24    13    14    1
    25    13    20    1
    26    13    15    1
    27    15    16    1
    28    15    38    1
    29    15    39    1
    30    16    17    1
    31    16    22    1
    32    16    18    1
    33    18    19    1
    34    18    40    1
    35    18    41    1
    36    19    20    1
    37    19    42    1
    38    19    43    1
    39    20    21    1
    40    20    22    1
    41    22    23    1
    42    23    24    1
    43    23    44    1
    44    23    45    1
    45    24    25    2
    46    24    46    1
    47    25    26    1
    48    25    27    1
    49    26    47    1
    50    26    48    1
    51    26    49    1
    52    27    50    1
    53    27    51    1
    54    27    52    1
@<TRIPOS>SUBSTRUCTURE
     1 ZINC001098311495        1 TEMP              0 ****  ****    0 ROOT


##########                                Name:    ZINC000885154703
##########                DOCK_Rotatable_Bonds:                   5
##########                         Heavy_Atoms:                  24
##########                    Molecular_Weight:             396.259
##########                DOCK_Rotatable_Bonds:                   5
##########                       Formal_Charge:          -0.0099998
##########                     HBond_Acceptors:                   6
##########                        HBond_Donors:                   1
##########                         Heavy_Atoms:                  24
##########                          Grid_Score:          -30.337112
##########                     Grid_vdw_energy:          -29.585613
##########                      Grid_es_energy:           -0.751498
##########           Internal_energy_repulsive:            6.825522

@<TRIPOS>MOLECULE
ZINC000885154703
 43 45 1 0 0
SMALL
USER_CHARGES


@<TRIPOS>ATOM
      1 C1        -16.9733   -0.9178   64.9403 C.3     1  ZINC000885154703   -0.1500
      2 C2        -15.6906   -0.4459   64.2524 C.3     1  ZINC000885154703   -0.0300
      3 C3        -15.4069   -1.3245   63.0614 C.2     1  ZINC000885154703    0.1700
      4 N4        -14.6810   -2.4022   63.0562 N.2     1  ZINC000885154703   -0.3800
      5 O5        -14.6480   -2.8809   61.9421 O.3     1  ZINC000885154703    0.0800
      6 C6        -15.3718   -2.1312   61.1054 C.2     1  ZINC000885154703    0.1800
      7 C7        -15.5866   -2.3802   59.6348 C.3     1  ZINC000885154703    0.0000
      8 H8        -16.5119   -1.9060   59.3074 H       1  ZINC000885154703    0.1300
      9 C9        -15.6436   -3.8968   59.3583 C.3     1  ZINC000885154703   -0.1200
     10 C10       -14.9266   -4.0616   57.9952 C.3     1  ZINC000885154703   -0.1300
     11 C11       -13.7730   -3.0324   58.0891 C.3     1  ZINC000885154703    0.1400
     12 H12       -12.9417   -3.4426   58.6625 H       1  ZINC000885154703    0.1000
     13 N13       -13.3264   -2.6393   56.7504 N.am    1  ZINC000885154703   -0.7100
     14 C14       -12.1917   -3.1569   56.2395 C.2     1  ZINC000885154703    0.5700
     15 O15       -11.5380   -3.9489   56.8902 O.2     1  ZINC000885154703   -0.5100
     16 C16       -11.7424   -2.7619   54.8891 C.ar    1  ZINC000885154703   -0.1600
     17 C17       -11.9915   -3.5950   53.7942 C.ar    1  ZINC000885154703    0.1500
     18 F18       -12.6443   -4.7650   53.9677 F       1  ZINC000885154703   -0.1200
     19 C19       -11.5678   -3.2174   52.5328 C.ar    1  ZINC000885154703   -0.1500
     20 C20       -10.8999   -2.0208   52.3546 C.ar    1  ZINC000885154703   -0.0400
     21 C21       -10.6504   -1.1912   53.4357 C.ar    1  ZINC000885154703   -0.1100
     22 Br22       -9.7354    0.4435   53.1780 Br      1  ZINC000885154703   -0.0300
     23 C23       -11.0719   -1.5517   54.6987 C.ar    1  ZINC000885154703    0.0100
     24 C24       -10.7993   -0.6468   55.8725 C.3     1  ZINC000885154703   -0.1300
     25 C25       -14.3979   -1.8294   58.8277 C.3     1  ZINC000885154703   -0.1300
     26 N26       -15.8633   -1.1403   61.8098 N.2     1  ZINC000885154703   -0.4800
     27 H27       -17.8051   -0.8580   64.2384 H       1  ZINC000885154703    0.0600
     28 H28       -16.8500   -1.9491   65.2707 H       1  ZINC000885154703    0.0600
     29 H29       -17.1784   -0.2824   65.8018 H       1  ZINC000885154703    0.0700
     30 H30       -15.8139    0.5855   63.9221 H       1  ZINC000885154703    0.1000
     31 H31       -14.8588   -0.5056   64.9543 H       1  ZINC000885154703    0.0900
     32 H32       -15.1143   -4.4466   60.1367 H       1  ZINC000885154703    0.0800
     33 H33       -16.6779   -4.2333   59.2885 H       1  ZINC000885154703    0.0900
     34 H34       -14.5345   -5.0725   57.8848 H       1  ZINC000885154703    0.0800
     35 H35       -15.5985   -3.8149   57.1732 H       1  ZINC000885154703    0.0800
     36 H36       -13.8474   -2.0064   56.2318 H       1  ZINC000885154703    0.4000
     37 H37       -11.7590   -3.8593   51.6854 H       1  ZINC000885154703    0.1500
     38 H38       -10.5707   -1.7310   51.3677 H       1  ZINC000885154703    0.1500
     39 H39       -11.6281    0.0507   55.9938 H       1  ZINC000885154703    0.0900
     40 H40       -10.6938   -1.2464   56.7767 H       1  ZINC000885154703    0.0800
     41 H41        -9.8789   -0.0902   55.6962 H       1  ZINC000885154703    0.0900
     42 H42       -14.7454   -1.0888   58.1075 H       1  ZINC000885154703    0.0900
     43 H43       -13.6655   -1.3825   59.4998 H       1  ZINC000885154703    0.0800
@<TRIPOS>BOND
     1     1     2    1
     2     1    27    1
     3     1    28    1
     4     1    29    1
     5     2     3    1
     6     2    30    1
     7     2    31    1
     8     3    26    1
     9     3     4    2
    10     4     5    1
    11     5     6    1
    12     6     7    1
    13     6    26    2
    14     7     8    1
    15     7    25    1
    16     7     9    1
    17     9    10    1
    18     9    32    1
    19     9    33    1
    20    10    11    1
    21    10    34    1
    22    10    35    1
    23    11    12    1
    24    11    13    1
    25    11    25    1
    26    13    14   am
    27    13    36    1
    28    14    15    2
    29    14    16    1
    30    16    23   ar
    31    16    17   ar
    32    17    18    1
    33    17    19   ar
    34    19    20   ar
    35    19    37    1
    36    20    21   ar
    37    20    38    1
    38    21    22    1
    39    21    23   ar
    40    23    24    1
    41    24    39    1
    42    24    40    1
    43    24    41    1
    44    25    42    1
    45    25    43    1
@<TRIPOS>SUBSTRUCTURE
     1 ZINC000885154703        1 TEMP              0 ****  ****    0 ROOT


##########                                Name:    ZINC000768148687
##########                DOCK_Rotatable_Bonds:                   8
##########                         Heavy_Atoms:                  25
##########                    Molecular_Weight:             371.307
##########                DOCK_Rotatable_Bonds:                   8
##########                       Formal_Charge:         2.98023e-08
##########                     HBond_Acceptors:                  11
##########                        HBond_Donors:                   0
##########                         Heavy_Atoms:                  25
##########                          Grid_Score:          -30.333719
##########                     Grid_vdw_energy:          -29.122536
##########                      Grid_es_energy:           -1.211184
##########           Internal_energy_repulsive:           10.184119

@<TRIPOS>MOLECULE
ZINC000768148687
 43 44 1 0 0
SMALL
USER_CHARGES


@<TRIPOS>ATOM
      1 C1         -9.6169   -0.0777   63.6604 C.3     1  ZINC000768148687   -0.1800
      2 C2        -10.0337   -0.2298   62.1962 C.3     1  ZINC000768148687    0.1100
      3 N3        -11.4295   -0.6698   62.1289 N.pl3   1  ZINC000768148687   -0.3100
      4 N4        -12.4964   -0.1165   62.8455 N.2     1  ZINC000768148687   -0.2000
      5 C5        -13.5901   -0.7569   62.5373 C.2     1  ZINC000768148687    0.0200
      6 C6        -14.9651   -0.4771   63.0869 C.3     1  ZINC000768148687    0.5500
      7 F7        -14.8625    0.3880   64.1816 F       1  ZINC000768148687   -0.1600
      8 F8        -15.7517    0.1178   62.0947 F       1  ZINC000768148687   -0.1600
      9 F9        -15.5574   -1.6770   63.4948 F       1  ZINC000768148687   -0.1500
     10 C10       -13.2595   -1.7596   61.5976 C.2     1  ZINC000768148687   -0.1800
     11 C11       -14.1899   -2.7186   60.9780 C.2     1  ZINC000768148687    0.5300
     12 O12       -14.6311   -3.6447   61.6294 O.2     1  ZINC000768148687   -0.4700
     13 O13       -14.5522   -2.5690   59.6886 O.3     1  ZINC000768148687   -0.3400
     14 C14       -15.3558   -3.6269   59.1027 C.3     1  ZINC000768148687    0.0200
     15 C15       -15.6089   -3.3167   57.6261 C.3     1  ZINC000768148687    0.0600
     16 N16       -14.6126   -4.0134   56.8015 N.3     1  ZINC000768148687   -0.5300
     17 C17       -13.2665   -3.4674   57.0281 C.3     1  ZINC000768148687    0.0100
     18 C18       -12.2538   -4.2593   56.1965 C.3     1  ZINC000768148687    0.0600
     19 O19       -12.6334   -4.2095   54.8186 O.3     1  ZINC000768148687   -0.3800
     20 C20       -13.9388   -4.7340   54.5617 C.3     1  ZINC000768148687    0.0600
     21 C21       -14.9686   -3.9469   55.3766 C.3     1  ZINC000768148687    0.0100
     22 C22       -11.9010   -1.6677   61.3650 C.2     1  ZINC000768148687    0.0600
     23 C23       -11.0948   -2.5349   60.4328 C.3     1  ZINC000768148687    0.3400
     24 F24       -10.4770   -1.7330   59.4672 F       1  ZINC000768148687   -0.1700
     25 F25       -10.1188   -3.2220   61.1622 F       1  ZINC000768148687   -0.1800
     26 H26        -8.5784    0.2497   63.7105 H       1  ZINC000768148687    0.0900
     27 H27       -10.2547    0.6617   64.1448 H       1  ZINC000768148687    0.0700
     28 H28        -9.7207   -1.0360   64.1692 H       1  ZINC000768148687    0.0700
     29 H29        -9.9300    0.7285   61.6874 H       1  ZINC000768148687    0.1100
     30 H30        -9.3959   -0.9693   61.7118 H       1  ZINC000768148687    0.1200
     31 H31       -14.8263   -4.5757   59.1891 H       1  ZINC000768148687    0.0800
     32 H32       -16.3083   -3.6931   59.6284 H       1  ZINC000768148687    0.0800
     33 H33       -16.6082   -3.6533   57.3501 H       1  ZINC000768148687    0.1100
     34 H34       -15.5293   -2.2421   57.4617 H       1  ZINC000768148687    0.0900
     35 H35       -13.2435   -2.4197   56.7285 H       1  ZINC000768148687    0.0500
     36 H36       -13.0134   -3.5501   58.0851 H       1  ZINC000768148687    0.0900
     37 H37       -11.2627   -3.8220   56.3171 H       1  ZINC000768148687    0.1000
     38 H38       -12.2384   -5.2960   56.5326 H       1  ZINC000768148687    0.0600
     39 H39       -14.1663   -4.6400   53.4999 H       1  ZINC000768148687    0.1000
     40 H40       -13.9724   -5.7845   54.8502 H       1  ZINC000768148687    0.0600
     41 H41       -15.9579   -4.3796   55.2281 H       1  ZINC000768148687    0.0800
     42 H42       -14.9728   -2.9068   55.0506 H       1  ZINC000768148687    0.0700
     43 H43       -11.7536   -3.2516   59.9424 H       1  ZINC000768148687    0.1500
@<TRIPOS>BOND
     1     1     2    1
     2     1    26    1
     3     1    27    1
     4     1    28    1
     5     2     3    1
     6     2    29    1
     7     2    30    1
     8     3    22    1
     9     3     4    1
    10     4     5    2
    11     5     6    1
    12     5    10    1
    13     6     7    1
    14     6     8    1
    15     6     9    1
    16    10    11    1
    17    10    22    2
    18    11    12    2
    19    11    13    1
    20    13    14    1
    21    14    15    1
    22    14    31    1
    23    14    32    1
    24    15    16    1
    25    15    33    1
    26    15    34    1
    27    16    21    1
    28    16    17    1
    29    17    18    1
    30    17    35    1
    31    17    36    1
    32    18    19    1
    33    18    37    1
    34    18    38    1
    35    19    20    1
    36    20    21    1
    37    20    39    1
    38    20    40    1
    39    21    41    1
    40    21    42    1
    41    22    23    1
    42    23    24    1
    43    23    25    1
    44    23    43    1
@<TRIPOS>SUBSTRUCTURE
     1 ZINC000768148687        1 TEMP              0 ****  ****    0 ROOT


##########                                Name:    ZINC000866717058
##########                DOCK_Rotatable_Bonds:                   7
##########                         Heavy_Atoms:                  25
##########                    Molecular_Weight:             380.388
##########                DOCK_Rotatable_Bonds:                   7
##########                       Formal_Charge:                0.04
##########                     HBond_Acceptors:                  10
##########                        HBond_Donors:                   1
##########                         Heavy_Atoms:                  25
##########                          Grid_Score:          -30.320105
##########                     Grid_vdw_energy:          -29.763393
##########                      Grid_es_energy:           -0.556712
##########           Internal_energy_repulsive:           11.879087

@<TRIPOS>MOLECULE
ZINC000866717058
 44 45 1 0 0
SMALL
USER_CHARGES


@<TRIPOS>ATOM
      1 C1         -1.5262    4.6435   50.9514 C.3     1  ZINC000866717058   -0.1100
      2 C2         -2.5606    3.5723   50.7204 C.ar    1  ZINC000866717058    0.2400
      3 N3         -2.5462    2.8831   49.5990 N.ar    1  ZINC000866717058   -0.5500
      4 C4         -3.4350    1.9327   49.3525 C.ar    1  ZINC000866717058    0.3500
      5 O5         -3.3771    1.2514   48.1826 O.3     1  ZINC000866717058   -0.2800
      6 C6         -2.1599    1.3411   47.4393 C.3     1  ZINC000866717058    0.0500
      7 H7         -1.3451    1.6177   48.1084 H       1  ZINC000866717058    0.1300
      8 C8         -1.8543   -0.0131   46.7960 C.3     1  ZINC000866717058   -0.1700
      9 C9         -2.3062    2.4030   46.3476 C.3     1  ZINC000866717058    0.4600
     10 F10        -3.5205    2.2190   45.6778 F       1  ZINC000866717058   -0.1700
     11 F11        -2.2822    3.6754   46.9286 F       1  ZINC000866717058   -0.1700
     12 F12        -1.2495    2.2855   45.4382 F       1  ZINC000866717058   -0.1700
     13 C13        -4.4271    1.6234   50.2776 C.ar    1  ZINC000866717058   -0.1900
     14 C14        -4.4808    2.3203   51.4675 C.ar    1  ZINC000866717058    0.0000
     15 C15        -3.5214    3.3166   51.6998 C.ar    1  ZINC000866717058   -0.2300
     16 C16        -3.5345    4.0907   52.9566 C.2     1  ZINC000866717058    0.5800
     17 O17        -4.1501    5.1373   53.0195 O.2     1  ZINC000866717058   -0.5200
     18 N18        -2.8641    3.6374   54.0344 N.am    1  ZINC000866717058   -0.7400
     19 C19        -2.8758    4.4066   55.2811 C.3     1  ZINC000866717058    0.1400
     20 C20        -2.3479    3.5354   56.4227 C.3     1  ZINC000866717058   -0.5700
     21 H21        -1.3463    3.1694   56.1968 H       1  ZINC000866717058    0.1500
     22 C22        -2.3590    4.3169   57.7618 C.3     1  ZINC000866717058   -0.1100
     23 C23        -2.2971    3.2669   58.8850 C.3     1  ZINC000866717058   -0.1200
     24 C24        -3.3278    2.1605   58.5847 C.3     1  ZINC000866717058   -0.5900
     25 S25        -3.4895    2.1415   56.7588 S.o2    1  ZINC000866717058    2.3700
     26 O26        -4.8105    2.5218   56.3991 O.2     1  ZINC000866717058   -0.9200
     27 O27        -2.9340    0.9368   56.2494 O.2     1  ZINC000866717058   -0.9300
     28 H28        -0.7071    4.2358   51.5438 H       1  ZINC000866717058    0.0900
     29 H29        -1.1428    4.9913   49.9921 H       1  ZINC000866717058    0.0700
     30 H30        -1.9804    5.4782   51.4854 H       1  ZINC000866717058    0.1100
     31 H31        -0.9259    0.0553   46.2290 H       1  ZINC000866717058    0.0900
     32 H32        -1.7502   -0.7695   47.5737 H       1  ZINC000866717058    0.0900
     33 H33        -2.6691   -0.2896   46.1269 H       1  ZINC000866717058    0.0800
     34 H34        -5.1474    0.8468   50.0668 H       1  ZINC000866717058    0.1600
     35 H35        -5.2404    2.1012   52.2033 H       1  ZINC000866717058    0.1500
     36 H36        -2.3740    2.8018   53.9845 H       1  ZINC000866717058    0.4000
     37 H37        -2.2408    5.2857   55.1716 H       1  ZINC000866717058    0.1000
     38 H38        -3.8953    4.7203   55.5051 H       1  ZINC000866717058    0.1000
     39 H39        -1.4915    4.9746   57.8175 H       1  ZINC000866717058    0.1100
     40 H40        -3.2760    4.9000   57.8461 H       1  ZINC000866717058    0.0900
     41 H41        -1.2974    2.8345   58.9277 H       1  ZINC000866717058    0.0900
     42 H42        -2.5320    3.7372   59.8398 H       1  ZINC000866717058    0.1000
     43 H43        -2.9630    1.1967   58.9399 H       1  ZINC000866717058    0.1400
     44 H44        -4.2848    2.3984   59.0491 H       1  ZINC000866717058    0.1400
@<TRIPOS>BOND
     1     1     2    1
     2     1    28    1
     3     1    29    1
     4     1    30    1
     5     2    15   ar
     6     2     3   ar
     7     3     4   ar
     8     4     5    1
     9     4    13   ar
    10     5     6    1
    11     6     7    1
    12     6     8    1
    13     6     9    1
    14     8    31    1
    15     8    32    1
    16     8    33    1
    17     9    10    1
    18     9    11    1
    19     9    12    1
    20    13    14   ar
    21    13    34    1
    22    14    15   ar
    23    14    35    1
    24    15    16    1
    25    16    17    2
    26    16    18   am
    27    18    19    1
    28    18    36    1
    29    19    20    1
    30    19    37    1
    31    19    38    1
    32    20    21    1
    33    20    25    1
    34    20    22    1
    35    22    23    1
    36    22    39    1
    37    22    40    1
    38    23    24    1
    39    23    41    1
    40    23    42    1
    41    24    25    1
    42    24    43    1
    43    24    44    1
    44    25    26    2
    45    25    27    2
@<TRIPOS>SUBSTRUCTURE
     1 ZINC000866717058        1 TEMP              0 ****  ****    0 ROOT


##########                                Name:    ZINC000540473851
##########                DOCK_Rotatable_Bonds:                   5
##########                         Heavy_Atoms:                  29
##########                    Molecular_Weight:             411.503
##########                DOCK_Rotatable_Bonds:                   5
##########                       Formal_Charge:           0.0200001
##########                     HBond_Acceptors:                   8
##########                        HBond_Donors:                   0
##########                         Heavy_Atoms:                  29
##########                          Grid_Score:          -30.315418
##########                     Grid_vdw_energy:          -30.265406
##########                      Grid_es_energy:           -0.050013
##########           Internal_energy_repulsive:           22.927166

@<TRIPOS>MOLECULE
ZINC000540473851
 51 54 1 0 0
SMALL
USER_CHARGES


@<TRIPOS>ATOM
      1 C1         -9.9628   -0.9108   52.3391 C.3     1  ZINC000540473851   -0.0800
      2 C2         -9.1762    0.3689   52.4596 C.2     1  ZINC000540473851    0.1500
      3 C3         -9.6875    1.5084   53.0216 C.2     1  ZINC000540473851   -0.3100
      4 C4        -11.0358    1.6685   53.5798 C.2     1  ZINC000540473851    0.6000
      5 O5        -11.9210    2.1556   52.9017 O.2     1  ZINC000540473851   -0.5100
      6 N6        -11.2931    1.2761   54.8431 N.am    1  ZINC000540473851   -0.6100
      7 C7        -12.6381    1.4219   55.4199 C.3     1  ZINC000540473851    0.1000
      8 C8        -13.0609    0.0748   56.0158 C.3     1  ZINC000540473851    0.0400
      9 N9        -12.0294   -0.3872   56.9542 N.3     1  ZINC000540473851   -0.5300
     10 C10       -12.4733   -1.5875   57.6753 C.3     1  ZINC000540473851    0.1200
     11 H11       -12.5991   -2.4093   56.9702 H       1  ZINC000540473851    0.0500
     12 C12       -13.8070   -1.3019   58.3686 C.3     1  ZINC000540473851   -0.1400
     13 C13       -11.4415   -1.9642   58.7069 C.ar    1  ZINC000540473851   -0.0500
     14 C14       -11.0609   -1.0485   59.6698 C.ar    1  ZINC000540473851   -0.1000
     15 C15       -10.1143   -1.3926   60.6170 C.ar    1  ZINC000540473851   -0.0900
     16 C16        -9.5475   -2.6527   60.6020 C.ar    1  ZINC000540473851   -0.1500
     17 C17        -9.9283   -3.5712   59.6380 C.ar    1  ZINC000540473851    0.1000
     18 F18        -9.3749   -4.8035   59.6225 F       1  ZINC000540473851   -0.1400
     19 C19       -10.8801   -3.2273   58.6934 C.ar    1  ZINC000540473851   -0.1500
     20 C20       -10.7533   -0.6276   56.2673 C.3     1  ZINC000540473851    0.0400
     21 C21       -10.2375    0.6850   55.6797 C.3     1  ZINC000540473851    0.1200
     22 S22        -8.4366    2.7476   52.9548 S.3     1  ZINC000540473851    0.2800
     23 C23        -7.3704    1.6470   52.1974 C.2     1  ZINC000540473851    0.0800
     24 C24        -5.9863    1.9643   51.7818 C.ar    1  ZINC000540473851    0.3800
     25 N25        -5.3401    1.1227   50.9851 N.ar    1  ZINC000540473851   -0.5100
     26 C26        -4.1033    1.3764   50.5956 C.ar    1  ZINC000540473851    0.1600
     27 C27        -3.4817    2.5385   51.0298 C.ar    1  ZINC000540473851   -0.2100
     28 C28        -4.1861    3.3967   51.8620 C.ar    1  ZINC000540473851    0.1500
     29 N29        -5.4224    3.0865   52.2101 N.ar    1  ZINC000540473851   -0.4700
     30 N30        -7.9448    0.4882   52.0428 N.2     1  ZINC000540473851   -0.4300
     31 H31        -9.8110   -1.5163   53.2327 H       1  ZINC000540473851    0.0900
     32 H32       -11.0223   -0.6776   52.2340 H       1  ZINC000540473851    0.0800
     33 H33        -9.6241   -1.4644   51.4633 H       1  ZINC000540473851    0.0800
     34 H34       -12.6204    2.1794   56.2035 H       1  ZINC000540473851    0.0900
     35 H35       -13.3413    1.7140   54.6400 H       1  ZINC000540473851    0.0900
     36 H36       -14.0071    0.1917   56.5442 H       1  ZINC000540473851    0.1000
     37 H37       -13.1784   -0.6560   55.2157 H       1  ZINC000540473851    0.0400
     38 H38       -13.6814   -0.4802   59.0736 H       1  ZINC000540473851    0.0700
     39 H39       -14.5534   -1.0294   57.6224 H       1  ZINC000540473851    0.0600
     40 H40       -14.1365   -2.1926   58.9036 H       1  ZINC000540473851    0.0600
     41 H41       -11.5031   -0.0631   59.6821 H       1  ZINC000540473851    0.1400
     42 H42        -9.8174   -0.6761   61.3687 H       1  ZINC000540473851    0.1300
     43 H43        -8.8076   -2.9211   61.3415 H       1  ZINC000540473851    0.1300
     44 H44       -11.1782   -3.9428   57.9415 H       1  ZINC000540473851    0.1300
     45 H45       -10.0260   -1.0201   56.9780 H       1  ZINC000540473851    0.1000
     46 H46       -10.9030   -1.3487   55.4637 H       1  ZINC000540473851    0.0400
     47 H47        -9.3526    0.4920   55.0733 H       1  ZINC000540473851    0.1000
     48 H48        -9.9888    1.3746   56.4863 H       1  ZINC000540473851    0.0800
     49 H49        -3.5822    0.6874   49.9474 H       1  ZINC000540473851    0.1800
     50 H50        -2.4712    2.7699   50.7267 H       1  ZINC000540473851    0.1600
     51 H51        -3.7309    4.3092   52.2174 H       1  ZINC000540473851    0.1800
@<TRIPOS>BOND
     1     1     2    1
     2     1    31    1
     3     1    32    1
     4     1    33    1
     5     2    30    1
     6     2     3    2
     7     3     4    1
     8     3    22    1
     9     4     5    2
    10     4     6   am
    11     6    21    1
    12     6     7    1
    13     7     8    1
    14     7    34    1
    15     7    35    1
    16     8     9    1
    17     8    36    1
    18     8    37    1
    19     9    10    1
    20     9    20    1
    21    10    11    1
    22    10    12    1
    23    10    13    1
    24    12    38    1
    25    12    39    1
    26    12    40    1
    27    13    19   ar
    28    13    14   ar
    29    14    15   ar
    30    14    41    1
    31    15    16   ar
    32    15    42    1
    33    16    17   ar
    34    16    43    1
    35    17    18    1
    36    17    19   ar
    37    19    44    1
    38    20    21    1
    39    20    45    1
    40    20    46    1
    41    21    47    1
    42    21    48    1
    43    22    23    1
    44    23    24    1
    45    23    30    2
    46    24    29   ar
    47    24    25   ar
    48    25    26   ar
    49    26    27   ar
    50    26    49    1
    51    27    28   ar
    52    27    50    1
    53    28    29   ar
    54    28    51    1
@<TRIPOS>SUBSTRUCTURE
     1 ZINC000540473851        1 TEMP              0 ****  ****    0 ROOT


##########                                Name:    ZINC001162683355
##########                DOCK_Rotatable_Bonds:                   5
##########                         Heavy_Atoms:                  25
##########                    Molecular_Weight:             336.437
##########                DOCK_Rotatable_Bonds:                   5
##########                       Formal_Charge:          -0.0100002
##########                     HBond_Acceptors:                   5
##########                        HBond_Donors:                   1
##########                         Heavy_Atoms:                  25
##########                          Grid_Score:          -30.264669
##########                     Grid_vdw_energy:          -29.572315
##########                      Grid_es_energy:           -0.692353
##########           Internal_energy_repulsive:            9.042001

@<TRIPOS>MOLECULE
ZINC001162683355
 49 52 1 0 0
SMALL
USER_CHARGES


@<TRIPOS>ATOM
      1 C1        -16.9772   -1.4253   57.1559 C.3     1  ZINC001162683355    0.0200
      2 N2        -16.4834   -2.7026   57.6876 N.3     1  ZINC001162683355   -0.5400
      3 C3        -16.0217   -2.5524   59.0753 C.3     1  ZINC001162683355    0.0100
      4 C4        -15.5727   -3.9155   59.6085 C.3     1  ZINC001162683355    0.0600
      5 O5        -14.5555   -4.4446   58.7537 O.3     1  ZINC001162683355   -0.3800
      6 C6        -14.9712   -4.6045   57.3946 C.3     1  ZINC001162683355    0.0800
      7 H7        -15.8037   -5.3067   57.3489 H       1  ZINC001162683355    0.0700
      8 C8        -13.8043   -5.1409   56.5631 C.3     1  ZINC001162683355    0.1500
      9 N9        -12.5689   -4.4604   56.9592 N.pl3   1  ZINC001162683355   -0.7300
     10 C10       -12.0356   -3.4618   56.1517 C.ar    1  ZINC001162683355    0.4300
     11 C11       -11.2879   -2.4291   56.7222 C.ar    1  ZINC001162683355   -0.0100
     12 C12       -10.7626   -1.4352   55.8763 C.ar    1  ZINC001162683355   -0.0400
     13 C13       -11.0109   -1.5229   54.4999 C.ar    1  ZINC001162683355   -0.1800
     14 C14       -11.7523   -2.5674   54.0296 C.ar    1  ZINC001162683355    0.1000
     15 N15       -12.2370   -3.4918   54.8447 N.ar    1  ZINC001162683355   -0.5400
     16 C16       -10.0407   -0.5064   56.7407 C.2     1  ZINC001162683355   -0.2200
     17 C17       -10.1671   -0.9628   57.9995 C.2     1  ZINC001162683355    0.0800
     18 N18       -10.9042   -2.1127   58.0055 N.pl3   1  ZINC001162683355   -0.4600
     19 C19       -11.2413   -2.8901   59.2006 C.3     1  ZINC001162683355    0.1500
     20 C20       -10.8670   -2.1060   60.4320 C.ar    1  ZINC001162683355   -0.1100
     21 C21       -11.6926   -1.0937   60.8840 C.ar    1  ZINC001162683355   -0.1000
     22 C22       -11.3515   -0.3774   62.0161 C.ar    1  ZINC001162683355   -0.1200
     23 C23       -10.1803   -0.6673   62.6906 C.ar    1  ZINC001162683355   -0.1100
     24 C24        -9.3521   -1.6762   62.2355 C.ar    1  ZINC001162683355   -0.1200
     25 C25        -9.6954   -2.3954   61.1060 C.ar    1  ZINC001162683355   -0.1000
     26 C26       -15.4142   -3.2484   56.8391 C.3     1  ZINC001162683355    0.0300
     27 H27       -16.1574   -0.7081   57.1139 H       1  ZINC001162683355    0.0300
     28 H28       -17.3770   -1.5792   56.1537 H       1  ZINC001162683355    0.0700
     29 H29       -17.7634   -1.0409   57.8057 H       1  ZINC001162683355    0.0700
     30 H30       -16.8366   -2.1712   59.6907 H       1  ZINC001162683355    0.0900
     31 H31       -15.1842   -1.8554   59.1068 H       1  ZINC001162683355    0.0500
     32 H32       -16.4232   -4.5970   59.6272 H       1  ZINC001162683355    0.0600
     33 H33       -15.1766   -3.7999   60.6173 H       1  ZINC001162683355    0.1000
     34 H34       -13.9971   -4.9578   55.5060 H       1  ZINC001162683355    0.0700
     35 H35       -13.6994   -6.2125   56.7330 H       1  ZINC001162683355    0.0800
     36 H36       -12.1229   -4.7065   57.7847 H       1  ZINC001162683355    0.4000
     37 H37       -10.6218   -0.7768   53.8228 H       1  ZINC001162683355    0.1300
     38 H38       -11.9476   -2.6422   52.9701 H       1  ZINC001162683355    0.1500
     39 H39        -9.5100    0.3811   56.4291 H       1  ZINC001162683355    0.1500
     40 H40        -9.7463   -0.4914   58.8753 H       1  ZINC001162683355    0.1700
     41 H41       -10.6921   -3.8316   59.1885 H       1  ZINC001162683355    0.0900
     42 H42       -12.3119   -3.0941   59.2112 H       1  ZINC001162683355    0.0900
     43 H43       -12.6058   -0.8646   60.3548 H       1  ZINC001162683355    0.1200
     44 H44       -11.9987    0.4107   62.3719 H       1  ZINC001162683355    0.1300
     45 H45        -9.9125   -0.1059   63.5736 H       1  ZINC001162683355    0.1300
     46 H46        -8.4372   -1.9027   62.7626 H       1  ZINC001162683355    0.1300
     47 H47        -9.0484   -3.1836   60.7504 H       1  ZINC001162683355    0.1200
     48 H48       -14.5670   -2.5626   56.8348 H       1  ZINC001162683355    0.0500
     49 H49       -15.7855   -3.3754   55.8222 H       1  ZINC001162683355    0.0900
@<TRIPOS>BOND
     1     1     2    1
     2     1    27    1
     3     1    28    1
     4     1    29    1
     5     2    26    1
     6     2     3    1
     7     3     4    1
     8     3    30    1
     9     3    31    1
    10     4     5    1
    11     4    32    1
    12     4    33    1
    13     5     6    1
    14     6     7    1
    15     6     8    1
    16     6    26    1
    17     8     9    1
    18     8    34    1
    19     8    35    1
    20     9    10    1
    21     9    36    1
    22    10    15   ar
    23    10    11   ar
    24    11    18    1
    25    11    12   ar
    26    12    13   ar
    27    12    16    1
    28    13    14   ar
    29    13    37    1
    30    14    15   ar
    31    14    38    1
    32    16    17    2
    33    16    39    1
    34    17    18    1
    35    17    40    1
    36    18    19    1
    37    19    20    1
    38    19    41    1
    39    19    42    1
    40    20    25   ar
    41    20    21   ar
    42    21    22   ar
    43    21    43    1
    44    22    23   ar
    45    22    44    1
    46    23    24   ar
    47    23    45    1
    48    24    25   ar
    49    24    46    1
    50    25    47    1
    51    26    48    1
    52    26    49    1
@<TRIPOS>SUBSTRUCTURE
     1 ZINC001162683355        1 TEMP              0 ****  ****    0 ROOT


##########                                Name:    ZINC000541315701
##########                DOCK_Rotatable_Bonds:                   4
##########                         Heavy_Atoms:                  25
##########                    Molecular_Weight:             422.709
##########                DOCK_Rotatable_Bonds:                   4
##########                       Formal_Charge:           0.0300003
##########                     HBond_Acceptors:                   6
##########                        HBond_Donors:                   0
##########                         Heavy_Atoms:                  25
##########                          Grid_Score:          -30.216381
##########                     Grid_vdw_energy:          -28.623259
##########                      Grid_es_energy:           -1.593122
##########           Internal_energy_repulsive:           23.031124

@<TRIPOS>MOLECULE
ZINC000541315701
 42 44 1 0 0
SMALL
USER_CHARGES


@<TRIPOS>ATOM
      1 C1         -8.9181   -3.5936   59.4664 C.3     1  ZINC000541315701    0.0800
      2 N2        -10.0162   -2.9288   58.7604 N.am    1  ZINC000541315701   -0.5700
      3 C3        -11.0479   -3.6536   58.2843 C.2     1  ZINC000541315701    0.5400
      4 O4        -11.0674   -4.8561   58.4404 O.2     1  ZINC000541315701   -0.5000
      5 C5        -12.1774   -2.9697   57.5579 C.3     1  ZINC000541315701   -0.1100
      6 H6        -11.8178   -2.0931   57.0190 H       1  ZINC000541315701    0.1300
      7 C7        -12.8953   -3.9508   56.6024 C.3     1  ZINC000541315701   -0.1500
      8 C8        -14.0399   -4.4995   57.4255 C.2     1  ZINC000541315701    0.5200
      9 O9        -14.6762   -5.4954   57.1533 O.2     1  ZINC000541315701   -0.5200
     10 N10       -14.2487   -3.7228   58.5025 N.am    1  ZINC000541315701   -0.6100
     11 C11       -15.2772   -3.9733   59.5153 C.3     1  ZINC000541315701    0.0900
     12 C12       -13.3134   -2.5910   58.5338 C.3     1  ZINC000541315701    0.1900
     13 H13       -12.9174   -2.4567   59.5404 H       1  ZINC000541315701    0.1100
     14 C14       -14.0023   -1.3324   58.0731 C.ar    1  ZINC000541315701   -0.0900
     15 C15       -15.1074   -1.4124   57.2468 C.ar    1  ZINC000541315701   -0.1000
     16 C16       -15.7403   -0.2581   56.8240 C.ar    1  ZINC000541315701   -0.1000
     17 C17       -15.2678    0.9764   57.2270 C.ar    1  ZINC000541315701   -0.1000
     18 C18       -14.1616    1.0572   58.0542 C.ar    1  ZINC000541315701   -0.0300
     19 Cl19      -13.5679    2.6077   58.5615 Cl      1  ZINC000541315701   -0.0600
     20 C20       -13.5322   -0.0982   58.4815 C.ar    1  ZINC000541315701   -0.0900
     21 C21        -9.9938   -1.5462   58.5808 C.ar    1  ZINC000541315701    0.3800
     22 N22        -9.7197   -1.0444   57.3874 N.ar    1  ZINC000541315701   -0.4700
     23 C23        -9.6887    0.2574   57.1743 C.ar    1  ZINC000541315701    0.1300
     24 C24        -9.9431    1.1489   58.1973 C.ar    1  ZINC000541315701   -0.1600
     25 C25       -10.2349    0.6639   59.4650 C.ar    1  ZINC000541315701   -0.0400
     26 C26       -10.2654   -0.7068   59.6565 C.ar    1  ZINC000541315701   -0.1300
     27 Br27      -10.6574   -1.4281   61.3600 Br      1  ZINC000541315701   -0.0200
     28 H28        -8.7524   -4.5802   59.0337 H       1  ZINC000541315701    0.0900
     29 H29        -8.0106   -2.9975   59.3701 H       1  ZINC000541315701    0.0800
     30 H30        -9.1743   -3.6976   60.5208 H       1  ZINC000541315701    0.0700
     31 H31       -13.2737   -3.4227   55.7271 H       1  ZINC000541315701    0.1200
     32 H32       -12.2214   -4.7536   56.3031 H       1  ZINC000541315701    0.1100
     33 H33       -15.8323   -4.8743   59.2544 H       1  ZINC000541315701    0.0900
     34 H34       -14.8043   -4.1068   60.4883 H       1  ZINC000541315701    0.0700
     35 H35       -15.9604   -3.1249   59.5568 H       1  ZINC000541315701    0.0600
     36 H36       -15.4765   -2.3771   56.9310 H       1  ZINC000541315701    0.1300
     37 H37       -16.6037   -0.3213   56.1783 H       1  ZINC000541315701    0.1400
     38 H38       -15.7619    1.8780   56.8961 H       1  ZINC000541315701    0.1400
     39 H39       -12.6688   -0.0358   59.1272 H       1  ZINC000541315701    0.1400
     40 H40        -9.4608    0.6304   56.1866 H       1  ZINC000541315701    0.1700
     41 H41        -9.9151    2.2128   58.0133 H       1  ZINC000541315701    0.1500
     42 H42       -10.4377    1.3404   60.2820 H       1  ZINC000541315701    0.1500
@<TRIPOS>BOND
     1     1     2    1
     2     1    28    1
     3     1    29    1
     4     1    30    1
     5     2     3   am
     6     2    21    1
     7     3     4    2
     8     3     5    1
     9     5     6    1
    10     5    12    1
    11     5     7    1
    12     7     8    1
    13     7    31    1
    14     7    32    1
    15     8     9    2
    16     8    10   am
    17    10    11    1
    18    10    12    1
    19    11    33    1
    20    11    34    1
    21    11    35    1
    22    12    13    1
    23    12    14    1
    24    14    20   ar
    25    14    15   ar
    26    15    16   ar
    27    15    36    1
    28    16    17   ar
    29    16    37    1
    30    17    18   ar
    31    17    38    1
    32    18    19    1
    33    18    20   ar
    34    20    39    1
    35    21    26   ar
    36    21    22   ar
    37    22    23   ar
    38    23    24   ar
    39    23    40    1
    40    24    25   ar
    41    24    41    1
    42    25    26   ar
    43    25    42    1
    44    26    27    1
@<TRIPOS>SUBSTRUCTURE
     1 ZINC000541315701        1 TEMP              0 ****  ****    0 ROOT


##########                                Name:    ZINC000951315041
##########                DOCK_Rotatable_Bonds:                   5
##########                         Heavy_Atoms:                  25
##########                    Molecular_Weight:             340.382
##########                DOCK_Rotatable_Bonds:                   5
##########                       Formal_Charge:          0.00999974
##########                     HBond_Acceptors:                   7
##########                        HBond_Donors:                   1
##########                         Heavy_Atoms:                  25
##########                          Grid_Score:          -30.199699
##########                     Grid_vdw_energy:          -30.294689
##########                      Grid_es_energy:            0.094990
##########           Internal_energy_repulsive:            9.732518

@<TRIPOS>MOLECULE
ZINC000951315041
 45 47 1 0 0
SMALL
USER_CHARGES


@<TRIPOS>ATOM
      1 C1         -9.7461   -1.7705   58.7076 C.3     1  ZINC000951315041    0.0500
      2 N2        -10.4524   -2.9318   58.1612 N.am    1  ZINC000951315041   -0.4900
      3 C3        -11.3850   -2.7513   57.2075 C.2     1  ZINC000951315041    0.1700
      4 C4        -12.0630   -3.8308   56.6789 C.2     1  ZINC000951315041   -0.2400
      5 C5        -13.0838   -3.6280   55.6343 C.2     1  ZINC000951315041    0.5800
      6 O6        -14.2452   -3.4465   55.9462 O.2     1  ZINC000951315041   -0.5200
      7 N7        -12.7299   -3.6437   54.3340 N.am    1  ZINC000951315041   -0.6000
      8 C8        -11.3309   -3.8618   53.9415 C.3     1  ZINC000951315041    0.1100
      9 C9        -10.8941   -2.7200   53.0183 C.3     1  ZINC000951315041   -0.1300
     10 C10       -11.8684   -2.6191   51.8424 C.3     1  ZINC000951315041   -0.1300
     11 C11       -13.2721   -2.3066   52.3661 C.3     1  ZINC000951315041    0.1300
     12 H12       -13.2513   -1.3726   52.9276 H       1  ZINC000951315041    0.1000
     13 N13       -14.1975   -2.1783   51.2378 N.am    1  ZINC000951315041   -0.7200
     14 C14       -14.4406   -0.9666   50.6999 C.2     1  ZINC000951315041    0.5700
     15 O15       -13.8929    0.0199   51.1521 O.2     1  ZINC000951315041   -0.5200
     16 C16       -15.3731   -0.8373   49.5601 C.ar    1  ZINC000951315041   -0.1900
     17 C17       -15.6304    0.4147   48.9894 C.ar    1  ZINC000951315041   -0.0100
     18 C18       -16.5111    0.4814   47.9239 C.ar    1  ZINC000951315041   -0.1800
     19 C19       -17.1031   -0.6797   47.4613 C.ar    1  ZINC000951315041    0.1300
     20 N20       -16.8420   -1.8466   48.0193 N.ar    1  ZINC000951315041   -0.4900
     21 C21       -16.0074   -1.9623   49.0311 C.ar    1  ZINC000951315041    0.1400
     22 C22       -13.7367   -3.4494   53.2818 C.3     1  ZINC000951315041    0.1000
     23 C23       -11.7704   -5.1348   57.1470 C.2     1  ZINC000951315041    0.0100
     24 C24       -10.8241   -5.2925   58.1106 C.2     1  ZINC000951315041   -0.2300
     25 C25       -10.1549   -4.1623   58.6165 C.2     1  ZINC000951315041    0.5100
     26 O26        -9.3050   -4.2987   59.4805 O.2     1  ZINC000951315041   -0.5400
     27 H27        -9.0296   -2.1018   59.4593 H       1  ZINC000951315041    0.1100
     28 H28        -9.2183   -1.2554   57.9048 H       1  ZINC000951315041    0.0800
     29 H29       -10.4645   -1.0905   59.1651 H       1  ZINC000951315041    0.0800
     30 H30       -11.6045   -1.7548   56.8539 H       1  ZINC000951315041    0.1700
     31 H31       -10.6999   -3.8749   54.8302 H       1  ZINC000951315041    0.1000
     32 H32       -11.2431   -4.8118   53.4145 H       1  ZINC000951315041    0.0700
     33 H33       -10.8958   -1.7822   53.5737 H       1  ZINC000951315041    0.0700
     34 H34        -9.8904   -2.9193   52.6431 H       1  ZINC000951315041    0.0900
     35 H35       -11.5459   -1.8233   51.1710 H       1  ZINC000951315041    0.0800
     36 H36       -11.8847   -3.5656   51.3020 H       1  ZINC000951315041    0.0700
     37 H37       -14.6355   -2.9654   50.8777 H       1  ZINC000951315041    0.4000
     38 H38       -15.1541    1.3058   49.3710 H       1  ZINC000951315041    0.1500
     39 H39       -16.7339    1.4304   47.4587 H       1  ZINC000951315041    0.1500
     40 H40       -17.7908   -0.6305   46.6300 H       1  ZINC000951315041    0.1600
     41 H41       -15.8190   -2.9350   49.4611 H       1  ZINC000951315041    0.1600
     42 H42       -13.8449   -4.3639   52.6987 H       1  ZINC000951315041    0.0700
     43 H43       -14.6924   -3.1880   53.7360 H       1  ZINC000951315041    0.0900
     44 H44       -12.2914   -5.9911   56.7450 H       1  ZINC000951315041    0.1400
     45 H45       -10.5854   -6.2781   58.4825 H       1  ZINC000951315041    0.1600
@<TRIPOS>BOND
     1     1     2    1
     2     1    27    1
     3     1    28    1
     4     1    29    1
     5     2    25   am
     6     2     3    1
     7     3     4    2
     8     3    30    1
     9     4     5    1
    10     4    23    1
    11     5     6    2
    12     5     7   am
    13     7    22    1
    14     7     8    1
    15     8     9    1
    16     8    31    1
    17     8    32    1
    18     9    10    1
    19     9    33    1
    20     9    34    1
    21    10    11    1
    22    10    35    1
    23    10    36    1
    24    11    12    1
    25    11    13    1
    26    11    22    1
    27    13    14   am
    28    13    37    1
    29    14    15    2
    30    14    16    1
    31    16    21   ar
    32    16    17   ar
    33    17    18   ar
    34    17    38    1
    35    18    19   ar
    36    18    39    1
    37    19    20   ar
    38    19    40    1
    39    20    21   ar
    40    21    41    1
    41    22    42    1
    42    22    43    1
    43    23    24    2
    44    23    44    1
    45    24    25    1
    46    24    45    1
    47    25    26    2
@<TRIPOS>SUBSTRUCTURE
     1 ZINC000951315041        1 TEMP              0 ****  ****    0 ROOT


##########                                Name:    ZINC000517001504
##########                DOCK_Rotatable_Bonds:                   5
##########                         Heavy_Atoms:                  29
##########                    Molecular_Weight:             403.401
##########                DOCK_Rotatable_Bonds:                   5
##########                       Formal_Charge:          -0.0200002
##########                     HBond_Acceptors:                   7
##########                        HBond_Donors:                   0
##########                         Heavy_Atoms:                  29
##########                          Grid_Score:          -30.175232
##########                     Grid_vdw_energy:          -29.971556
##########                      Grid_es_energy:           -0.203675
##########           Internal_energy_repulsive:           33.263718

@<TRIPOS>MOLECULE
ZINC000517001504
 49 52 1 0 0
SMALL
USER_CHARGES


@<TRIPOS>ATOM
      1 O1        -10.2970   -3.2738   59.6016 O.2     1  ZINC000517001504   -0.5200
      2 C2        -10.9807   -2.3739   59.1614 C.2     1  ZINC000517001504    0.5400
      3 N3        -11.3689   -1.3660   59.9676 N.am    1  ZINC000517001504   -0.6100
      4 C4        -12.1934   -0.2604   59.4547 C.3     1  ZINC000517001504    0.0600
      5 C5        -11.5340    1.0627   59.8600 C.3     1  ZINC000517001504    0.0500
      6 O6        -11.2883    1.0543   61.2683 O.3     1  ZINC000517001504   -0.3700
      7 C7        -10.3808    0.0366   61.6979 C.3     1  ZINC000517001504    0.1200
      8 H8         -9.4331    0.1479   61.1711 H       1  ZINC000517001504    0.0800
      9 C9        -10.1497    0.1622   63.1818 C.ar    1  ZINC000517001504   -0.0600
     10 C10       -10.8612    1.0927   63.9159 C.ar    1  ZINC000517001504   -0.0900
     11 C11       -10.6492    1.2078   65.2770 C.ar    1  ZINC000517001504   -0.0700
     12 C12        -9.7259    0.3922   65.9041 C.ar    1  ZINC000517001504   -0.1800
     13 C13        -9.4943    0.5182   67.3879 C.3     1  ZINC000517001504    0.5100
     14 F14        -8.7652    1.6834   67.6488 F       1  ZINC000517001504   -0.1800
     15 F15       -10.7258    0.5808   68.0485 F       1  ZINC000517001504   -0.1800
     16 F16        -8.7765   -0.5928   67.8438 F       1  ZINC000517001504   -0.1800
     17 C17        -9.0152   -0.5391   65.1703 C.ar    1  ZINC000517001504   -0.0700
     18 C18        -9.2301   -0.6569   63.8098 C.ar    1  ZINC000517001504   -0.1000
     19 C19       -10.9859   -1.3420   61.3882 C.3     1  ZINC000517001504    0.0900
     20 C20       -11.3909   -2.3796   57.7113 C.3     1  ZINC000517001504   -0.0600
     21 C21       -10.6996   -1.3123   56.9025 C.ar    1  ZINC000517001504   -0.0700
     22 C22        -9.6760   -0.5730   57.4652 C.ar    1  ZINC000517001504   -0.1200
     23 C23        -9.0418    0.4059   56.7233 C.ar    1  ZINC000517001504   -0.1100
     24 C24        -9.4309    0.6453   55.4186 C.ar    1  ZINC000517001504   -0.1100
     25 C25       -10.4539   -0.0947   54.8557 C.ar    1  ZINC000517001504   -0.1100
     26 C26       -11.0851   -1.0766   55.5962 C.ar    1  ZINC000517001504   -0.1000
     27 C27       -11.3472   -3.7739   57.0628 C.3     1  ZINC000517001504   -0.1600
     28 C28       -12.7854   -3.9342   57.5139 C.2     1  ZINC000517001504    0.3600
     29 O29       -13.5130   -4.8627   57.7722 O.2     1  ZINC000517001504   -0.4100
     30 C30       -12.9142   -2.4239   57.5008 C.3     1  ZINC000517001504   -0.1900
     31 H31       -12.2555   -0.3221   58.3682 H       1  ZINC000517001504    0.1000
     32 H32       -13.1937   -0.3187   59.8839 H       1  ZINC000517001504    0.0800
     33 H33       -10.5905    1.1777   59.3265 H       1  ZINC000517001504    0.0600
     34 H34       -12.1971    1.8913   59.6110 H       1  ZINC000517001504    0.1100
     35 H35       -11.5825    1.7298   63.4260 H       1  ZINC000517001504    0.1400
     36 H36       -11.2046    1.9353   65.8504 H       1  ZINC000517001504    0.1400
     37 H37        -8.2942   -1.1765   65.6604 H       1  ZINC000517001504    0.1400
     38 H38        -8.6749   -1.3846   63.2365 H       1  ZINC000517001504    0.1400
     39 H39       -11.8633   -1.5067   62.0134 H       1  ZINC000517001504    0.0800
     40 H40       -10.2462   -2.1191   61.5806 H       1  ZINC000517001504    0.1100
     41 H41        -9.3720   -0.7599   58.4845 H       1  ZINC000517001504    0.1300
     42 H42        -8.2426    0.9841   57.1631 H       1  ZINC000517001504    0.1300
     43 H43        -8.9360    1.4105   54.8392 H       1  ZINC000517001504    0.1300
     44 H44       -10.7581    0.0923   53.8364 H       1  ZINC000517001504    0.1300
     45 H45       -11.8843   -1.6548   55.1563 H       1  ZINC000517001504    0.1200
     46 H46       -11.2286   -3.7491   55.9795 H       1  ZINC000517001504    0.1300
     47 H47       -10.6564   -4.4617   57.5504 H       1  ZINC000517001504    0.1100
     48 H48       -13.4838   -2.0261   58.3408 H       1  ZINC000517001504    0.1000
     49 H49       -13.2352   -2.0205   56.5405 H       1  ZINC000517001504    0.1400
@<TRIPOS>BOND
     1     1     2    2
     2     2     3   am
     3     2    20    1
     4     3    19    1
     5     3     4    1
     6     4     5    1
     7     4    31    1
     8     4    32    1
     9     5     6    1
    10     5    33    1
    11     5    34    1
    12     6     7    1
    13     7     8    1
    14     7     9    1
    15     7    19    1
    16     9    18   ar
    17     9    10   ar
    18    10    11   ar
    19    10    35    1
    20    11    12   ar
    21    11    36    1
    22    12    13    1
    23    12    17   ar
    24    13    14    1
    25    13    15    1
    26    13    16    1
    27    17    18   ar
    28    17    37    1
    29    18    38    1
    30    19    39    1
    31    19    40    1
    32    20    30    1
    33    20    21    1
    34    20    27    1
    35    21    26   ar
    36    21    22   ar
    37    22    23   ar
    38    22    41    1
    39    23    24   ar
    40    23    42    1
    41    24    25   ar
    42    24    43    1
    43    25    26   ar
    44    25    44    1
    45    26    45    1
    46    27    28    1
    47    27    46    1
    48    27    47    1
    49    28    29    2
    50    28    30    1
    51    30    48    1
    52    30    49    1
@<TRIPOS>SUBSTRUCTURE
     1 ZINC000517001504        1 TEMP              0 ****  ****    0 ROOT


##########                                Name:    ZINC001345966764
##########                DOCK_Rotatable_Bonds:                  10
##########                         Heavy_Atoms:                  22
##########                    Molecular_Weight:             333.258
##########                DOCK_Rotatable_Bonds:                  10
##########                       Formal_Charge:           0.0099997
##########                     HBond_Acceptors:                  11
##########                        HBond_Donors:                   4
##########                         Heavy_Atoms:                  22
##########                          Grid_Score:          -30.138168
##########                     Grid_vdw_energy:          -29.542036
##########                      Grid_es_energy:           -0.596133
##########           Internal_energy_repulsive:            6.112035

@<TRIPOS>MOLECULE
ZINC001345966764
 38 38 1 0 0
SMALL
USER_CHARGES


@<TRIPOS>ATOM
      1 N1         -9.2702   -0.7608   67.4401 N.3     1  ZINC001345966764   -0.8400
      2 C2         -8.3350   -0.6852   66.3097 C.3     1  ZINC001345966764    0.0200
      3 C3         -8.3821    0.7181   65.7019 C.3     1  ZINC001345966764    0.2800
      4 F4         -8.6184    1.6563   66.7124 F       1  ZINC001345966764   -0.1900
      5 F5         -7.1599    0.9989   65.0815 F       1  ZINC001345966764   -0.1800
      6 C6         -9.5072    0.7883   64.6675 C.3     1  ZINC001345966764    0.0800
      7 N7         -9.3357   -0.2856   63.6858 N.am    1  ZINC001345966764   -0.7000
      8 C8        -10.2528   -0.4632   62.7143 C.2     1  ZINC001345966764    0.5100
      9 O9        -11.2198    0.2672   62.6518 O.2     1  ZINC001345966764   -0.5100
     10 C10       -10.0788   -1.5599   61.7139 C.2     1  ZINC001345966764    0.5100
     11 O11        -9.1710   -2.3555   61.8377 O.2     1  ZINC001345966764   -0.5100
     12 N12       -10.9301   -1.6650   60.6744 N.am    1  ZINC001345966764   -0.7000
     13 C13       -10.7607   -2.7411   59.6947 C.3     1  ZINC001345966764    0.1200
     14 C14       -11.8769   -2.6615   58.6515 C.3     1  ZINC001345966764    0.0600
     15 H15       -11.7149   -1.8125   57.9874 H       1  ZINC001345966764    0.0900
     16 C16       -11.9485   -3.9736   57.8394 C.3     1  ZINC001345966764   -0.1400
     17 C17       -13.4609   -4.1897   57.6079 C.3     1  ZINC001345966764   -0.1500
     18 C18       -14.1240   -2.9827   58.3076 C.3     1  ZINC001345966764    0.0300
     19 H19       -14.3085   -2.1828   57.5905 H       1  ZINC001345966764    0.1200
     20 C20       -15.4320   -3.4080   58.9776 C.3     1  ZINC001345966764    0.4600
     21 F21       -16.2837   -2.3030   59.0815 F       1  ZINC001345966764   -0.1700
     22 F22       -16.0483   -4.4011   58.2088 F       1  ZINC001345966764   -0.1700
     23 F23       -15.1602   -3.9090   60.2553 F       1  ZINC001345966764   -0.1700
     24 O24       -13.1635   -2.5548   59.2990 O.3     1  ZINC001345966764   -0.3500
     25 H25        -9.0288   -0.0906   68.1546 H       1  ZINC001345966764    0.3500
     26 H26       -10.2221   -0.6330   67.1310 H       1  ZINC001345966764    0.3600
     27 H27        -7.3244   -0.8959   66.6595 H       1  ZINC001345966764    0.1100
     28 H28        -8.6182   -1.4180   65.5542 H       1  ZINC001345966764    0.0700
     29 H29       -10.4685    0.6730   65.1679 H       1  ZINC001345966764    0.1100
     30 H30        -9.4749    1.7527   64.1605 H       1  ZINC001345966764    0.1100
     31 H31        -8.5622   -0.8687   63.7350 H       1  ZINC001345966764    0.4200
     32 H32       -11.6550   -1.0283   60.5748 H       1  ZINC001345966764    0.4200
     33 H33        -9.7943   -2.6346   59.2018 H       1  ZINC001345966764    0.1000
     34 H34       -10.8055   -3.7047   60.2021 H       1  ZINC001345966764    0.0900
     35 H35       -11.4286   -3.8627   56.8879 H       1  ZINC001345966764    0.0900
     36 H36       -11.5277   -4.8004   58.4116 H       1  ZINC001345966764    0.0900
     37 H37       -13.6885   -4.1858   56.5420 H       1  ZINC001345966764    0.1000
     38 H38       -13.7877   -5.1234   58.0657 H       1  ZINC001345966764    0.0900
@<TRIPOS>BOND
     1     1     2    1
     2     1    25    1
     3     1    26    1
     4     2     3    1
     5     2    27    1
     6     2    28    1
     7     3     4    1
     8     3     5    1
     9     3     6    1
    10     6     7    1
    11     6    29    1
    12     6    30    1
    13     7     8   am
    14     7    31    1
    15     8     9    2
    16     8    10    1
    17    10    11    2
    18    10    12   am
    19    12    13    1
    20    12    32    1
    21    13    14    1
    22    13    33    1
    23    13    34    1
    24    14    15    1
    25    14    24    1
    26    14    16    1
    27    16    17    1
    28    16    35    1
    29    16    36    1
    30    17    18    1
    31    17    37    1
    32    17    38    1
    33    18    19    1
    34    18    20    1
    35    18    24    1
    36    20    21    1
    37    20    22    1
    38    20    23    1
@<TRIPOS>SUBSTRUCTURE
     1 ZINC001345966764        1 TEMP              0 ****  ****    0 ROOT


##########                                Name:    ZINC000279974681
##########                DOCK_Rotatable_Bonds:                   4
##########                         Heavy_Atoms:                  23
##########                    Molecular_Weight:              338.79
##########                DOCK_Rotatable_Bonds:                   4
##########                       Formal_Charge:           0.0100008
##########                     HBond_Acceptors:                   7
##########                        HBond_Donors:                   1
##########                         Heavy_Atoms:                  23
##########                          Grid_Score:          -30.101406
##########                     Grid_vdw_energy:          -29.396973
##########                      Grid_es_energy:           -0.704434
##########           Internal_energy_repulsive:           14.092807

@<TRIPOS>MOLECULE
ZINC000279974681
 42 45 1 0 0
SMALL
USER_CHARGES


@<TRIPOS>ATOM
      1 C1        -13.9483   -5.7304   55.7791 C.3     1  ZINC000279974681   -0.1400
      2 C2        -12.9202   -4.5982   55.8208 C.3     1  ZINC000279974681    0.0700
      3 H3        -11.9440   -5.0026   56.0885 H       1  ZINC000279974681    0.0600
      4 C4        -13.3465   -3.5575   56.8625 C.3     1  ZINC000279974681    0.1000
      5 N5        -12.4499   -2.3960   56.7519 N.am    1  ZINC000279974681   -0.6300
      6 C6        -11.8386   -1.8854   57.8393 C.2     1  ZINC000279974681    0.7100
      7 O7        -11.1013   -0.9250   57.7274 O.2     1  ZINC000279974681   -0.5600
      8 N8        -12.0446   -2.4393   59.0506 N.am    1  ZINC000279974681   -0.6700
      9 C9        -11.4087   -1.9082   60.1815 C.ar    1  ZINC000279974681    0.2000
     10 C10       -11.9641   -0.8231   60.8446 C.ar    1  ZINC000279974681   -0.1200
     11 C11       -11.3357   -0.2990   61.9621 C.ar    1  ZINC000279974681    0.0700
     12 C12       -10.1468   -0.8623   62.4186 C.ar    1  ZINC000279974681    0.0200
     13 C13        -9.5946   -1.9454   61.7539 C.ar    1  ZINC000279974681   -0.0700
     14 C14       -10.2253   -2.4718   60.6419 C.ar    1  ZINC000279974681   -0.0700
     15 Cl15       -9.5304   -3.8287   59.8116 Cl      1  ZINC000279974681   -0.0500
     16 O16        -9.7329   -0.1720   63.5224 O.3     1  ZINC000279974681   -0.3000
     17 C17       -10.4604    1.0701   63.4942 C.3     1  ZINC000279974681    0.2100
     18 O18       -11.6668    0.7436   62.7793 O.3     1  ZINC000279974681   -0.3000
     19 C19       -12.2399   -1.8086   55.4192 C.3     1  ZINC000279974681    0.0800
     20 C20       -11.8676   -2.9345   54.4478 C.3     1  ZINC000279974681    0.1100
     21 H21       -10.8871   -3.3321   54.7100 H       1  ZINC000279974681    0.0700
     22 C22       -11.8315   -2.3863   53.0199 C.3     1  ZINC000279974681   -0.1600
     23 C23       -11.9767   -0.8739   52.8398 C.3     1  ZINC000279974681   -0.1700
     24 C24       -10.6194   -1.5441   52.6169 C.3     1  ZINC000279974681   -0.1600
     25 O25       -12.8432   -3.9756   54.5362 O.3     1  ZINC000279974681   -0.3600
     26 H26       -13.6456   -6.4691   55.0370 H       1  ZINC000279974681    0.0700
     27 H27       -14.0078   -6.2035   56.7594 H       1  ZINC000279974681    0.0800
     28 H28       -14.9243   -5.3254   55.5115 H       1  ZINC000279974681    0.0700
     29 H29       -14.3740   -3.2474   56.6724 H       1  ZINC000279974681    0.0800
     30 H30       -13.2706   -3.9860   57.8619 H       1  ZINC000279974681    0.1100
     31 H31       -12.6329   -3.2054   59.1397 H       1  ZINC000279974681    0.4100
     32 H32       -12.8860   -0.3871   60.4890 H       1  ZINC000279974681    0.1800
     33 H33        -8.6724   -2.3820   62.1078 H       1  ZINC000279974681    0.1500
     34 H34       -10.6925    1.4010   64.5064 H       1  ZINC000279974681    0.1400
     35 H35        -9.8940    1.8336   62.9608 H       1  ZINC000279974681    0.0900
     36 H36       -13.1560   -1.3224   55.0838 H       1  ZINC000279974681    0.0900
     37 H37       -11.4314   -1.0789   55.4628 H       1  ZINC000279974681    0.0900
     38 H38       -12.2734   -3.0289   52.2583 H       1  ZINC000279974681    0.1100
     39 H39       -12.5143   -0.5211   51.9597 H       1  ZINC000279974681    0.1000
     40 H40       -12.0978   -0.2694   53.7387 H       1  ZINC000279974681    0.1000
     41 H41        -9.8477   -1.3805   53.3692 H       1  ZINC000279974681    0.1000
     42 H42       -10.2642   -1.6322   51.5902 H       1  ZINC000279974681    0.1000
@<TRIPOS>BOND
     1     1     2    1
     2     1    26    1
     3     1    27    1
     4     1    28    1
     5     2     3    1
     6     2    25    1
     7     2     4    1
     8     4     5    1
     9     4    29    1
    10     4    30    1
    11     5     6   am
    12     5    19    1
    13     6     7    2
    14     6     8   am
    15     8     9    1
    16     8    31    1
    17     9    14   ar
    18     9    10   ar
    19    10    11   ar
    20    10    32    1
    21    11    18    1
    22    11    12   ar
    23    12    13   ar
    24    12    16    1
    25    13    14   ar
    26    13    33    1
    27    14    15    1
    28    16    17    1
    29    17    18    1
    30    17    34    1
    31    17    35    1
    32    19    20    1
    33    19    36    1
    34    19    37    1
    35    20    21    1
    36    20    22    1
    37    20    25    1
    38    22    24    1
    39    22    23    1
    40    22    38    1
    41    23    24    1
    42    23    39    1
    43    23    40    1
    44    24    41    1
    45    24    42    1
@<TRIPOS>SUBSTRUCTURE
     1 ZINC000279974681        1 TEMP              0 ****  ****    0 ROOT


##########                                Name:    ZINC000845755710
##########                DOCK_Rotatable_Bonds:                   3
##########                         Heavy_Atoms:                  24
##########                    Molecular_Weight:             349.814
##########                DOCK_Rotatable_Bonds:                   3
##########                       Formal_Charge:         -0.00999974
##########                     HBond_Acceptors:                   6
##########                        HBond_Donors:                   0
##########                         Heavy_Atoms:                  24
##########                          Grid_Score:          -30.091005
##########                     Grid_vdw_energy:          -29.458435
##########                      Grid_es_energy:           -0.632571
##########           Internal_energy_repulsive:           14.968733

@<TRIPOS>MOLECULE
ZINC000845755710
 44 47 1 0 0
SMALL
USER_CHARGES


@<TRIPOS>ATOM
      1 C1        -13.4594   -1.5166   51.0916 C.3     1  ZINC000845755710   -0.1700
      2 C2        -12.6117   -1.2761   52.3424 C.3     1  ZINC000845755710    0.2600
      3 C3        -12.4146   -2.5957   53.0912 C.3     1  ZINC000845755710   -0.0900
      4 C4        -11.4369   -2.3836   54.2493 C.3     1  ZINC000845755710   -0.1300
      5 C5        -11.2153   -3.7142   54.9753 C.3     1  ZINC000845755710    0.1100
      6 N6        -12.5201   -4.2559   55.3787 N.am    1  ZINC000845755710   -0.6000
      7 C7        -12.7545   -4.5994   56.6607 C.2     1  ZINC000845755710    0.5900
      8 O8        -13.8392   -5.0469   56.9819 O.2     1  ZINC000845755710   -0.5200
      9 C9        -11.6990   -4.4334   57.6713 C.2     1  ZINC000845755710   -0.2200
     10 C10       -10.7860   -5.3619   58.0658 C.2     1  ZINC000845755710    0.0600
     11 O11        -9.9870   -4.8432   59.0054 O.3     1  ZINC000845755710   -0.1800
     12 C12       -10.3192   -3.5650   59.2817 C.ar    1  ZINC000845755710    0.0500
     13 C13        -9.8052   -2.6193   60.1600 C.ar    1  ZINC000845755710   -0.0900
     14 C14       -10.3666   -1.3617   60.2246 C.ar    1  ZINC000845755710   -0.0800
     15 C15       -11.4453   -1.0267   59.4189 C.ar    1  ZINC000845755710   -0.0400
     16 Cl16      -12.1380    0.5623   59.5161 Cl      1  ZINC000845755710   -0.0600
     17 C17       -11.9688   -1.9529   58.5402 C.ar    1  ZINC000845755710   -0.0500
     18 C18       -11.4059   -3.2223   58.4638 C.ar    1  ZINC000845755710   -0.0900
     19 C19       -13.5648   -4.4154   54.3581 C.3     1  ZINC000845755710    0.1000
     20 C20       -13.7601   -3.0770   53.6389 C.3     1  ZINC000845755710   -0.1300
     21 O21       -11.3315   -0.7434   51.9632 O.3     1  ZINC000845755710   -0.3700
     22 C22       -11.4745    0.6916   52.0927 C.3     1  ZINC000845755710    0.0100
     23 C23       -12.3942    0.8054   53.3341 C.3     1  ZINC000845755710    0.0200
     24 O24       -13.2704   -0.3314   53.1963 O.3     1  ZINC000845755710   -0.3800
     25 H25       -13.6027   -0.5741   50.5631 H       1  ZINC000845755710    0.0600
     26 H26       -12.9503   -2.2255   50.4385 H       1  ZINC000845755710    0.0800
     27 H27       -14.4288   -1.9215   51.3820 H       1  ZINC000845755710    0.0800
     28 H28       -12.0118   -3.3439   52.4085 H       1  ZINC000845755710    0.0900
     29 H29       -10.4862   -2.0185   53.8606 H       1  ZINC000845755710    0.0800
     30 H30       -11.8502   -1.6537   54.9454 H       1  ZINC000845755710    0.0800
     31 H31       -10.7189   -4.4172   54.3065 H       1  ZINC000845755710    0.0700
     32 H32       -10.5988   -3.5500   55.8592 H       1  ZINC000845755710    0.1000
     33 H33       -10.7168   -6.3676   57.6785 H       1  ZINC000845755710    0.2200
     34 H34        -8.9662   -2.8693   60.7925 H       1  ZINC000845755710    0.1500
     35 H35        -9.9631   -0.6304   60.9093 H       1  ZINC000845755710    0.1500
     36 H36       -12.8085   -1.6925   57.9129 H       1  ZINC000845755710    0.1400
     37 H37       -13.2600   -5.1756   53.6388 H       1  ZINC000845755710    0.0800
     38 H38       -14.4987   -4.7139   54.8345 H       1  ZINC000845755710    0.0900
     39 H39       -14.1517   -2.3406   54.3408 H       1  ZINC000845755710    0.0700
     40 H40       -14.4630   -3.2053   52.8158 H       1  ZINC000845755710    0.0800
     41 H41       -10.5100    1.1648   52.2768 H       1  ZINC000845755710    0.1100
     42 H42       -11.9543    1.1171   51.2113 H       1  ZINC000845755710    0.0800
     43 H43       -11.8118    0.7338   54.2528 H       1  ZINC000845755710    0.0800
     44 H44       -12.9625    1.7351   53.3085 H       1  ZINC000845755710    0.1000
@<TRIPOS>BOND
     1     1     2    1
     2     1    25    1
     3     1    26    1
     4     1    27    1
     5     2    24    1
     6     2     3    1
     7     2    21    1
     8     3    20    1
     9     3     4    1
    10     3    28    1
    11     4     5    1
    12     4    29    1
    13     4    30    1
    14     5     6    1
    15     5    31    1
    16     5    32    1
    17     6     7   am
    18     6    19    1
    19     7     8    2
    20     7     9    1
    21     9    18    1
    22     9    10    2
    23    10    11    1
    24    10    33    1
    25    11    12    1
    26    12    18   ar
    27    12    13   ar
    28    13    14   ar
    29    13    34    1
    30    14    15   ar
    31    14    35    1
    32    15    16    1
    33    15    17   ar
    34    17    18   ar
    35    17    36    1
    36    19    20    1
    37    19    37    1
    38    19    38    1
    39    20    39    1
    40    20    40    1
    41    21    22    1
    42    22    23    1
    43    22    41    1
    44    22    42    1
    45    23    24    1
    46    23    43    1
    47    23    44    1
@<TRIPOS>SUBSTRUCTURE
     1 ZINC000845755710        1 TEMP              0 ****  ****    0 ROOT


##########                                Name:    ZINC001018118384
##########                DOCK_Rotatable_Bonds:                   5
##########                         Heavy_Atoms:                  25
##########                    Molecular_Weight:             347.374
##########                DOCK_Rotatable_Bonds:                   5
##########                       Formal_Charge:           0.0299997
##########                     HBond_Acceptors:                   9
##########                        HBond_Donors:                   2
##########                         Heavy_Atoms:                  25
##########                          Grid_Score:          -29.998075
##########                     Grid_vdw_energy:          -28.278078
##########                      Grid_es_energy:           -1.719997
##########           Internal_energy_repulsive:           98.359291

@<TRIPOS>MOLECULE
ZINC001018118384
 46 48 1 0 0
SMALL
USER_CHARGES


@<TRIPOS>ATOM
      1 C1         -6.8258    3.1864   55.7323 C.3     1  ZINC001018118384   -0.0700
      2 C2         -7.8453    2.5111   56.6129 C.2     1  ZINC001018118384    0.2200
      3 N3         -8.1855    1.2562   56.5503 N.2     1  ZINC001018118384   -0.4600
      4 C4         -9.1283    1.0092   57.4954 C.2     1  ZINC001018118384   -0.0700
      5 C5         -9.7789   -0.2861   57.7588 C.2     1  ZINC001018118384    0.6100
      6 O6         -9.1590   -1.1778   58.3063 O.2     1  ZINC001018118384   -0.5400
      7 N7        -11.0610   -0.4828   57.3929 N.am    1  ZINC001018118384   -0.5900
      8 C8        -11.8210    0.5828   56.7252 C.3     1  ZINC001018118384    0.0700
      9 C9        -12.4068    0.0286   55.4227 C.3     1  ZINC001018118384    0.1300
     10 H10       -13.0517    0.7792   54.9657 H       1  ZINC001018118384    0.1100
     11 N11       -11.3186   -0.3076   54.5013 N.am    1  ZINC001018118384   -0.7000
     12 C12       -10.6437    0.6728   53.8691 C.2     1  ZINC001018118384    0.6000
     13 O13       -10.9386    1.8355   54.0622 O.2     1  ZINC001018118384   -0.4900
     14 C14        -9.5417    0.3327   52.9383 C.2     1  ZINC001018118384    0.0300
     15 C15        -9.2326   -0.9099   52.4706 C.2     1  ZINC001018118384   -0.2300
     16 C16        -8.1103   -0.6898   51.6234 C.2     1  ZINC001018118384    0.4800
     17 O17        -7.4939   -1.5269   50.9851 O.2     1  ZINC001018118384   -0.5200
     18 N18        -7.8704    0.6360   51.6724 N.am    1  ZINC001018118384   -0.4500
     19 C19        -6.7951    1.3137   50.9437 C.3     1  ZINC001018118384    0.1100
     20 O20        -8.6659    1.1912   52.3942 O.3     1  ZINC001018118384    0.0000
     21 C21       -13.2240   -1.2284   55.7297 C.3     1  ZINC001018118384   -0.1300
     22 C22       -12.3123   -2.2946   56.3414 C.3     1  ZINC001018118384   -0.1300
     23 C23       -11.7236   -1.7690   57.6488 C.3     1  ZINC001018118384    0.1400
     24 H24       -12.5219   -1.6238   58.3767 H       1  ZINC001018118384    0.0700
     25 C25       -10.7082   -2.7748   58.1951 C.3     1  ZINC001018118384   -0.1400
     26 C26        -9.3632    2.1789   58.1571 C.2     1  ZINC001018118384    0.0400
     27 N27        -8.5534    3.1124   57.6042 N.pl3   1  ZINC001018118384   -0.5600
     28 H28        -5.8407    3.1106   56.1928 H       1  ZINC001018118384    0.0900
     29 H29        -6.8091    2.7002   54.7569 H       1  ZINC001018118384    0.1000
     30 H30        -7.0899    4.2369   55.6103 H       1  ZINC001018118384    0.0800
     31 H31       -12.6288    0.9181   57.3757 H       1  ZINC001018118384    0.0800
     32 H32       -11.1584    1.4188   56.5014 H       1  ZINC001018118384    0.1500
     33 H33       -11.0839   -1.2359   54.3462 H       1  ZINC001018118384    0.4100
     34 H34        -9.7253   -1.8451   52.6921 H       1  ZINC001018118384    0.1900
     35 H35        -7.1599    1.6254   49.9650 H       1  ZINC001018118384    0.0800
     36 H36        -6.4706    2.1891   51.5063 H       1  ZINC001018118384    0.0900
     37 H37        -5.9550    0.6307   50.8178 H       1  ZINC001018118384    0.1100
     38 H38       -14.0182   -0.9820   56.4342 H       1  ZINC001018118384    0.0900
     39 H39       -13.6622   -1.6107   54.8078 H       1  ZINC001018118384    0.0800
     40 H40       -12.8900   -3.1979   56.5381 H       1  ZINC001018118384    0.0800
     41 H41       -11.5037   -2.5236   55.6474 H       1  ZINC001018118384    0.0600
     42 H42        -9.9188   -2.9298   57.4597 H       1  ZINC001018118384    0.0700
     43 H43       -10.2746   -2.3887   59.1176 H       1  ZINC001018118384    0.0800
     44 H44       -11.2078   -3.7222   58.3971 H       1  ZINC001018118384    0.0400
     45 H45       -10.0584    2.3301   58.9695 H       1  ZINC001018118384    0.1900
     46 H46        -8.4943    4.0449   57.8647 H       1  ZINC001018118384    0.4300
@<TRIPOS>BOND
     1     1     2    1
     2     1    28    1
     3     1    29    1
     4     1    30    1
     5     2    27    1
     6     2     3    2
     7     3     4    1
     8     4     5    1
     9     4    26    2
    10     5     6    2
    11     5     7   am
    12     7    23    1
    13     7     8    1
    14     8     9    1
    15     8    31    1
    16     8    32    1
    17     9    10    1
    18     9    11    1
    19     9    21    1
    20    11    12   am
    21    11    33    1
    22    12    13    2
    23    12    14    1
    24    14    20    1
    25    14    15    2
    26    15    16    1
    27    15    34    1
    28    16    17    2
    29    16    18   am
    30    18    19    1
    31    18    20    1
    32    19    35    1
    33    19    36    1
    34    19    37    1
    35    21    22    1
    36    21    38    1
    37    21    39    1
    38    22    23    1
    39    22    40    1
    40    22    41    1
    41    23    24    1
    42    23    25    1
    43    25    42    1
    44    25    43    1
    45    25    44    1
    46    26    27    1
    47    26    45    1
    48    27    46    1
@<TRIPOS>SUBSTRUCTURE
     1 ZINC001018118384        1 TEMP              0 ****  ****    0 ROOT


##########                                Name:    ZINC000609484313
##########                DOCK_Rotatable_Bonds:                  10
##########                         Heavy_Atoms:                  26
##########                    Molecular_Weight:             361.487
##########                DOCK_Rotatable_Bonds:                  10
##########                       Formal_Charge:          -0.0200004
##########                     HBond_Acceptors:                   7
##########                        HBond_Donors:                   1
##########                         Heavy_Atoms:                  26
##########                          Grid_Score:          -29.954935
##########                     Grid_vdw_energy:          -29.843075
##########                      Grid_es_energy:           -0.111861
##########           Internal_energy_repulsive:           30.824459

@<TRIPOS>MOLECULE
ZINC000609484313
 57 58 1 0 0
SMALL
USER_CHARGES


@<TRIPOS>ATOM
      1 C1        -13.8259   -4.5980   57.5897 C.3     1  ZINC000609484313   -0.1500
      2 C2        -13.5991   -3.1049   57.8351 C.3     1  ZINC000609484313   -0.1300
      3 C3        -12.7213   -2.5324   56.7204 C.3     1  ZINC000609484313   -0.1100
      4 C4        -11.2649   -2.4928   57.1875 C.3     1  ZINC000609484313   -0.1100
      5 C5        -10.9604   -1.1209   57.7925 C.3     1  ZINC000609484313    0.0800
      6 H6        -11.8921   -0.5761   57.9448 H       1  ZINC000609484313    0.1200
      7 C7        -10.2606   -1.2991   59.1151 C.2     1  ZINC000609484313    0.4900
      8 O8         -9.3393   -2.0816   59.2132 O.2     1  ZINC000609484313   -0.5000
      9 N9        -10.6587   -0.5889   60.1892 N.am    1  ZINC000609484313   -0.6300
     10 C10       -10.0098   -0.7527   61.4132 C.2     1  ZINC000609484313    0.2400
     11 N11        -9.1921   -1.7171   61.7450 N.2     1  ZINC000609484313   -0.3900
     12 O12        -8.7890   -1.5859   62.8774 O.3     1  ZINC000609484313    0.1000
     13 C13        -9.2974   -0.4913   63.4620 C.2     1  ZINC000609484313   -0.0200
     14 C14        -9.0222   -0.0083   64.8627 C.3     1  ZINC000609484313   -0.0800
     15 C15       -10.1003    0.0981   62.5469 C.2     1  ZINC000609484313   -0.2300
     16 N16       -10.0945   -0.3639   56.8785 N.3     1  ZINC000609484313   -0.5000
     17 C17        -9.5233    0.8130   57.5478 C.3     1  ZINC000609484313    0.0400
     18 C18        -8.5679    1.5280   56.5896 C.3     1  ZINC000609484313    0.0500
     19 N19        -9.2977    1.9187   55.3753 N.3     1  ZINC000609484313   -0.5100
     20 C20        -8.4318    2.6756   54.4613 C.3     1  ZINC000609484313    0.1800
     21 H21        -7.4129    2.2937   54.5262 H       1  ZINC000609484313    0.1200
     22 C22        -8.9247    2.5266   53.0823 C.1     1  ZINC000609484313    0.1700
     23 N23        -9.3052    2.4115   52.0181 N.1     1  ZINC000609484313   -0.4200
     24 C24        -8.4478    4.1549   54.8516 C.3     1  ZINC000609484313   -0.0800
     25 C25        -7.5625    4.9465   53.8869 C.3     1  ZINC000609484313   -0.1400
     26 C26        -9.8811    4.6856   54.7805 C.3     1  ZINC000609484313   -0.1500
     27 C27        -9.8688    0.7417   54.7059 C.3     1  ZINC000609484313    0.0500
     28 C28       -10.8243    0.0268   55.6642 C.3     1  ZINC000609484313    0.0400
     29 H29       -14.3220   -4.7369   56.6292 H       1  ZINC000609484313    0.0500
     30 H30       -12.8663   -5.1147   57.5812 H       1  ZINC000609484313    0.0500
     31 H31       -14.4513   -5.0058   58.3840 H       1  ZINC000609484313    0.0500
     32 H32       -14.5587   -2.5881   57.8437 H       1  ZINC000609484313    0.0600
     33 H33       -13.1029   -2.9659   58.7957 H       1  ZINC000609484313    0.0600
     34 H34       -12.8018   -3.1625   55.8346 H       1  ZINC000609484313    0.0800
     35 H35       -13.0531   -1.5224   56.4792 H       1  ZINC000609484313    0.0600
     36 H36       -11.1033   -3.2653   57.9392 H       1  ZINC000609484313    0.0700
     37 H37       -10.6058   -2.6694   56.3375 H       1  ZINC000609484313    0.0800
     38 H38       -11.3963    0.0361   60.1111 H       1  ZINC000609484313    0.4200
     39 H39        -8.3304   -0.6927   65.3536 H       1  ZINC000609484313    0.0800
     40 H40        -8.5814    0.9879   64.8233 H       1  ZINC000609484313    0.0900
     41 H41        -9.9558    0.0294   65.4240 H       1  ZINC000609484313    0.0900
     42 H42       -10.6811    1.0019   62.6555 H       1  ZINC000609484313    0.1900
     43 H43       -10.3254    1.4924   57.8359 H       1  ZINC000609484313    0.0800
     44 H44        -8.9775    0.4966   58.4368 H       1  ZINC000609484313    0.0800
     45 H45        -8.1652    2.4176   57.0739 H       1  ZINC000609484313    0.0900
     46 H46        -7.7510    0.8573   56.3229 H       1  ZINC000609484313    0.0400
     47 H47        -8.0688    4.2668   55.8674 H       1  ZINC000609484313    0.0800
     48 H48        -7.9415    4.8346   52.8709 H       1  ZINC000609484313    0.0600
     49 H49        -7.5739    6.0004   54.1648 H       1  ZINC000609484313    0.0500
     50 H50        -6.5414    4.5684   53.9374 H       1  ZINC000609484313    0.0700
     51 H51        -9.8805    5.7594   54.9673 H       1  ZINC000609484313    0.0700
     52 H52       -10.2926    4.4891   53.7905 H       1  ZINC000609484313    0.0600
     53 H53       -10.4911    4.1862   55.5332 H       1  ZINC000609484313    0.0500
     54 H54       -10.4146    1.0581   53.8170 H       1  ZINC000609484313    0.0900
     55 H55        -9.0667    0.0622   54.4179 H       1  ZINC000609484313    0.0400
     56 H56       -11.2270   -0.8628   55.1799 H       1  ZINC000609484313    0.0800
     57 H57       -11.6412    0.6974   55.9309 H       1  ZINC000609484313    0.0800
@<TRIPOS>BOND
     1     1     2    1
     2     1    29    1
     3     1    30    1
     4     1    31    1
     5     2     3    1
     6     2    32    1
     7     2    33    1
     8     3     4    1
     9     3    34    1
    10     3    35    1
    11     4     5    1
    12     4    36    1
    13     4    37    1
    14     5     6    1
    15     5     7    1
    16     5    16    1
    17     7     8    2
    18     7     9   am
    19     9    10    1
    20     9    38    1
    21    10    15    1
    22    10    11    2
    23    11    12    1
    24    12    13    1
    25    13    14    1
    26    13    15    2
    27    14    39    1
    28    14    40    1
    29    14    41    1
    30    15    42    1
    31    16    28    1
    32    16    17    1
    33    17    18    1
    34    17    43    1
    35    17    44    1
    36    18    19    1
    37    18    45    1
    38    18    46    1
    39    19    20    1
    40    19    27    1
    41    20    21    1
    42    20    22    1
    43    20    24    1
    44    22    23    3
    45    24    25    1
    46    24    26    1
    47    24    47    1
    48    25    48    1
    49    25    49    1
    50    25    50    1
    51    26    51    1
    52    26    52    1
    53    26    53    1
    54    27    28    1
    55    27    54    1
    56    27    55    1
    57    28    56    1
    58    28    57    1
@<TRIPOS>SUBSTRUCTURE
     1 ZINC000609484313        1 TEMP              0 ****  ****    0 ROOT


##########                                Name:    ZINC000653668607
##########                DOCK_Rotatable_Bonds:                   5
##########                         Heavy_Atoms:                  28
##########                    Molecular_Weight:             379.459
##########                DOCK_Rotatable_Bonds:                   5
##########                       Formal_Charge:          0.00999918
##########                     HBond_Acceptors:                   6
##########                        HBond_Donors:                   2
##########                         Heavy_Atoms:                  28
##########                          Grid_Score:          -29.948000
##########                     Grid_vdw_energy:          -28.936003
##########                      Grid_es_energy:           -1.011997
##########           Internal_energy_repulsive:           10.219552

@<TRIPOS>MOLECULE
ZINC000653668607
 53 56 1 0 0
SMALL
USER_CHARGES


@<TRIPOS>ATOM
      1 C1        -13.1080   -4.9990   56.7794 C.3     1  ZINC000653668607    0.0300
      2 O2        -11.6915   -4.8934   56.9358 O.3     1  ZINC000653668607   -0.3200
      3 C3        -11.2388   -4.0665   57.9146 C.ar    1  ZINC000653668607    0.1300
      4 C4        -10.4819   -4.5734   58.9608 C.ar    1  ZINC000653668607   -0.2000
      5 C5        -10.0250   -3.7255   59.9473 C.ar    1  ZINC000653668607   -0.0800
      6 C6        -10.3155   -2.3678   59.9038 C.ar    1  ZINC000653668607   -0.1000
      7 C7         -9.7708   -1.4993   61.0079 C.3     1  ZINC000653668607   -0.0800
      8 C8        -10.5133   -0.1656   61.0582 C.3     1  ZINC000653668607   -0.1200
      9 C9        -10.5165    0.4397   59.6495 C.3     1  ZINC000653668607   -0.1100
     10 C10       -11.4319   -0.4039   58.7647 C.3     1  ZINC000653668607   -0.0600
     11 H11       -12.4655   -0.2653   59.0815 H       1  ZINC000653668607    0.1000
     12 C12       -11.2872    0.0417   57.3324 C.2     1  ZINC000653668607    0.5200
     13 O13       -12.0940    0.8092   56.8516 O.2     1  ZINC000653668607   -0.5100
     14 N14       -10.2614   -0.4126   56.5856 N.am    1  ZINC000653668607   -0.6700
     15 C15       -10.1271    0.0011   55.2558 C.ar    1  ZINC000653668607    0.1500
     16 C16        -8.9878    0.6859   54.8524 C.ar    1  ZINC000653668607   -0.1100
     17 C17        -8.8545    1.0949   53.5392 C.ar    1  ZINC000653668607   -0.0900
     18 C18        -9.8529    0.8245   52.6237 C.ar    1  ZINC000653668607   -0.1200
     19 C19       -10.9950    0.1403   53.0209 C.ar    1  ZINC000653668607    0.1700
     20 N20       -12.0063   -0.1329   52.0929 N.am    1  ZINC000653668607   -0.5800
     21 C21       -12.2307   -1.5140   51.6629 C.3     1  ZINC000653668607    0.1100
     22 C22       -13.7059   -1.6903   51.2873 C.3     1  ZINC000653668607   -0.1500
     23 C23       -14.0671   -0.6463   50.2253 C.3     1  ZINC000653668607    0.1100
     24 N24       -13.7430    0.6877   50.7335 N.am    1  ZINC000653668607   -0.7400
     25 C25       -12.7538    0.8754   51.6198 C.2     1  ZINC000653668607    0.7100
     26 O26       -12.5189    2.0055   52.0020 O.2     1  ZINC000653668607   -0.5800
     27 C27       -11.1292   -0.2772   54.3371 C.ar    1  ZINC000653668607   -0.1300
     28 C28       -11.0717   -1.8630   58.8690 C.ar    1  ZINC000653668607   -0.0300
     29 C29       -11.5260   -2.7127   57.8701 C.ar    1  ZINC000653668607   -0.1500
     30 H30       -13.5490   -5.3710   57.7042 H       1  ZINC000653668607    0.0600
     31 H31       -13.5222   -4.0176   56.5483 H       1  ZINC000653668607    0.0600
     32 H32       -13.3333   -5.6890   55.9661 H       1  ZINC000653668607    0.1000
     33 H33       -10.2519   -5.6278   59.0027 H       1  ZINC000653668607    0.1300
     34 H34        -9.4359   -4.1206   60.7618 H       1  ZINC000653668607    0.1300
     35 H35        -9.8904   -2.0134   61.9616 H       1  ZINC000653668607    0.0800
     36 H36        -8.7114   -1.3145   60.8302 H       1  ZINC000653668607    0.0800
     37 H37       -11.5386   -0.3285   61.3901 H       1  ZINC000653668607    0.0700
     38 H38       -10.0070    0.5105   61.7471 H       1  ZINC000653668607    0.0800
     39 H39       -10.8878    1.4638   59.6909 H       1  ZINC000653668607    0.0700
     40 H40        -9.5047    0.4317   59.2441 H       1  ZINC000653668607    0.0800
     41 H41        -9.6161   -1.0264   56.9701 H       1  ZINC000653668607    0.4100
     42 H42        -8.2057    0.8992   55.5659 H       1  ZINC000653668607    0.1400
     43 H43        -7.9679    1.6275   53.2282 H       1  ZINC000653668607    0.1300
     44 H44        -9.7458    1.1454   51.5980 H       1  ZINC000653668607    0.1200
     45 H45       -11.6058   -1.7319   50.7968 H       1  ZINC000653668607    0.0700
     46 H46       -11.9780   -2.1944   52.4761 H       1  ZINC000653668607    0.0900
     47 H47       -13.8643   -2.6910   50.8856 H       1  ZINC000653668607    0.1000
     48 H48       -14.3283   -1.5447   52.1703 H       1  ZINC000653668607    0.0800
     49 H49       -13.4965   -0.8385   49.3167 H       1  ZINC000653668607    0.0700
     50 H50       -15.1333   -0.7035   50.0061 H       1  ZINC000653668607    0.0900
     51 H51       -14.2565    1.4510   50.4259 H       1  ZINC000653668607    0.4200
     52 H52       -12.0159   -0.8094   54.6482 H       1  ZINC000653668607    0.1300
     53 H53       -12.1121   -2.3158   57.0544 H       1  ZINC000653668607    0.1200
@<TRIPOS>BOND
     1     1     2    1
     2     1    30    1
     3     1    31    1
     4     1    32    1
     5     2     3    1
     6     3    29   ar
     7     3     4   ar
     8     4     5   ar
     9     4    33    1
    10     5     6   ar
    11     5    34    1
    12     6    28   ar
    13     6     7    1
    14     7     8    1
    15     7    35    1
    16     7    36    1
    17     8     9    1
    18     8    37    1
    19     8    38    1
    20     9    10    1
    21     9    39    1
    22     9    40    1
    23    10    11    1
    24    10    12    1
    25    10    28    1
    26    12    13    2
    27    12    14   am
    28    14    15    1
    29    14    41    1
    30    15    27   ar
    31    15    16   ar
    32    16    17   ar
    33    16    42    1
    34    17    18   ar
    35    17    43    1
    36    18    19   ar
    37    18    44    1
    38    19    20    1
    39    19    27   ar
    40    20    25   am
    41    20    21    1
    42    21    22    1
    43    21    45    1
    44    21    46    1
    45    22    23    1
    46    22    47    1
    47    22    48    1
    48    23    24    1
    49    23    49    1
    50    23    50    1
    51    24    25   am
    52    24    51    1
    53    25    26    2
    54    27    52    1
    55    28    29   ar
    56    29    53    1
@<TRIPOS>SUBSTRUCTURE
     1 ZINC000653668607        1 TEMP              0 ****  ****    0 ROOT


##########                                Name:    ZINC000455156110
##########                DOCK_Rotatable_Bonds:                   4
##########                         Heavy_Atoms:                  27
##########                    Molecular_Weight:             370.424
##########                DOCK_Rotatable_Bonds:                   4
##########                       Formal_Charge:           0.0100002
##########                     HBond_Acceptors:                   6
##########                        HBond_Donors:                   1
##########                         Heavy_Atoms:                  27
##########                          Grid_Score:          -29.947140
##########                     Grid_vdw_energy:          -29.598684
##########                      Grid_es_energy:           -0.348456
##########           Internal_energy_repulsive:           55.608196

@<TRIPOS>MOLECULE
ZINC000455156110
 50 53 1 0 0
SMALL
USER_CHARGES


@<TRIPOS>ATOM
      1 C1        -10.2320    0.3485   63.9268 C.3     1  ZINC000455156110    0.0300
      2 O2         -9.9433   -0.8555   63.2133 O.3     1  ZINC000455156110   -0.3100
      3 C3        -10.0731   -0.8176   61.8597 C.ar    1  ZINC000455156110    0.0900
      4 C4         -9.8384   -1.9588   61.1090 C.ar    1  ZINC000455156110   -0.1600
      5 C5         -9.9701   -1.9213   59.7340 C.ar    1  ZINC000455156110   -0.0800
      6 C6         -9.7141   -3.1627   58.9188 C.3     1  ZINC000455156110   -0.1100
      7 C7        -10.3383   -0.7410   59.1034 C.ar    1  ZINC000455156110    0.1500
      8 N8        -10.4727   -0.7037   57.7090 N.am    1  ZINC000455156110   -0.6700
      9 C9         -9.7903    0.2099   56.9905 C.2     1  ZINC000455156110    0.7200
     10 O10        -9.0582    1.0017   57.5522 O.2     1  ZINC000455156110   -0.5500
     11 N11        -9.9195    0.2457   55.6494 N.am    1  ZINC000455156110   -0.5600
     12 C12        -9.2265    1.1858   54.7625 C.3     1  ZINC000455156110    0.1000
     13 C13        -9.7014    0.8233   53.3502 C.3     1  ZINC000455156110   -0.0200
     14 C14       -10.4165    2.0113   52.7108 C.3     1  ZINC000455156110   -0.1400
     15 C15        -9.4099    3.1447   52.4896 C.3     1  ZINC000455156110    0.0600
     16 O16        -8.3284    2.6680   51.6862 O.3     1  ZINC000455156110   -0.3800
     17 C17        -7.5891    1.5962   52.2753 C.3     1  ZINC000455156110    0.0600
     18 C18        -8.5166    0.3956   52.4870 C.3     1  ZINC000455156110   -0.1400
     19 C19       -10.6568   -0.3274   53.5425 C.ar    1  ZINC000455156110   -0.1300
     20 C20       -11.3914   -1.0638   52.6332 C.ar    1  ZINC000455156110   -0.0700
     21 C21       -12.2104   -2.0892   53.0685 C.ar    1  ZINC000455156110   -0.1400
     22 C22       -12.2935   -2.3775   54.4181 C.ar    1  ZINC000455156110   -0.0900
     23 C23       -11.5632   -1.6451   55.3298 C.ar    1  ZINC000455156110   -0.1300
     24 C24       -10.7298   -0.6123   54.8982 C.ar    1  ZINC000455156110    0.1600
     25 C25       -10.5743    0.4028   59.8547 C.ar    1  ZINC000455156110   -0.1200
     26 C26       -10.4466    0.3636   61.2306 C.ar    1  ZINC000455156110    0.0900
     27 F27       -10.6763    1.4757   61.9625 F       1  ZINC000455156110   -0.1300
     28 H28       -10.0897    0.1813   64.9944 H       1  ZINC000455156110    0.1000
     29 H29        -9.5620    1.1397   63.5903 H       1  ZINC000455156110    0.0600
     30 H30       -11.2647    0.6430   63.7396 H       1  ZINC000455156110    0.0600
     31 H31        -9.5521   -2.8777   61.5990 H       1  ZINC000455156110    0.1400
     32 H32       -10.6423   -3.7237   58.8098 H       1  ZINC000455156110    0.0800
     33 H33        -9.3425   -2.8803   57.9337 H       1  ZINC000455156110    0.0600
     34 H34        -8.9723   -3.7820   59.4230 H       1  ZINC000455156110    0.0800
     35 H35       -11.0567   -1.3354   57.2610 H       1  ZINC000455156110    0.4100
     36 H36        -9.5062    2.2112   55.0046 H       1  ZINC000455156110    0.0800
     37 H37        -8.1472    1.0575   54.8437 H       1  ZINC000455156110    0.0900
     38 H38       -10.8407    1.7089   51.7534 H       1  ZINC000455156110    0.0800
     39 H39       -11.2130    2.3551   53.3707 H       1  ZINC000455156110    0.0800
     40 H40        -9.9021    3.9741   51.9818 H       1  ZINC000455156110    0.1000
     41 H41        -9.0263    3.4832   53.4521 H       1  ZINC000455156110    0.0500
     42 H42        -6.7711    1.3117   51.6134 H       1  ZINC000455156110    0.1000
     43 H43        -7.1854    1.9175   53.2356 H       1  ZINC000455156110    0.0500
     44 H44        -7.9700   -0.4030   52.9886 H       1  ZINC000455156110    0.0800
     45 H45        -8.8784    0.0403   51.5221 H       1  ZINC000455156110    0.0800
     46 H46       -11.3261   -0.8375   51.5792 H       1  ZINC000455156110    0.1300
     47 H47       -12.7839   -2.6634   52.3560 H       1  ZINC000455156110    0.1300
     48 H48       -12.9327   -3.1785   54.7593 H       1  ZINC000455156110    0.1300
     49 H49       -11.6329   -1.8748   56.3829 H       1  ZINC000455156110    0.1400
     50 H50       -10.8608    1.3216   59.3647 H       1  ZINC000455156110    0.1700
@<TRIPOS>BOND
     1     1     2    1
     2     1    28    1
     3     1    29    1
     4     1    30    1
     5     2     3    1
     6     3    26   ar
     7     3     4   ar
     8     4     5   ar
     9     4    31    1
    10     5     6    1
    11     5     7   ar
    12     6    32    1
    13     6    33    1
    14     6    34    1
    15     7     8    1
    16     7    25   ar
    17     8     9   am
    18     8    35    1
    19     9    10    2
    20     9    11   am
    21    11    24    1
    22    11    12    1
    23    12    13    1
    24    12    36    1
    25    12    37    1
    26    13    18    1
    27    13    14    1
    28    13    19    1
    29    14    15    1
    30    14    38    1
    31    14    39    1
    32    15    16    1
    33    15    40    1
    34    15    41    1
    35    16    17    1
    36    17    18    1
    37    17    42    1
    38    17    43    1
    39    18    44    1
    40    18    45    1
    41    19    24   ar
    42    19    20   ar
    43    20    21   ar
    44    20    46    1
    45    21    22   ar
    46    21    47    1
    47    22    23   ar
    48    22    48    1
    49    23    24   ar
    50    23    49    1
    51    25    26   ar
    52    25    50    1
    53    26    27    1
@<TRIPOS>SUBSTRUCTURE
     1 ZINC000455156110        1 TEMP              0 ****  ****    0 ROOT


##########                                Name:    ZINC000496437542
##########                DOCK_Rotatable_Bonds:                   7
##########                         Heavy_Atoms:                  24
##########                    Molecular_Weight:             338.447
##########                DOCK_Rotatable_Bonds:                   7
##########                       Formal_Charge:           0.0400002
##########                     HBond_Acceptors:                   6
##########                        HBond_Donors:                   1
##########                         Heavy_Atoms:                  24
##########                          Grid_Score:          -29.924788
##########                     Grid_vdw_energy:          -27.679810
##########                      Grid_es_energy:           -2.244978
##########           Internal_energy_repulsive:           36.708866

@<TRIPOS>MOLECULE
ZINC000496437542
 54 55 1 0 0
SMALL
USER_CHARGES


@<TRIPOS>ATOM
      1 C1         -1.9882    2.8673   64.7609 C.3     1  ZINC000496437542   -0.1800
      2 C2         -3.1896    2.7542   63.8201 C.3     1  ZINC000496437542    0.1400
      3 C3         -3.5319    4.1369   63.2616 C.3     1  ZINC000496437542   -0.1800
      4 C4         -2.8470    1.8089   62.6669 C.3     1  ZINC000496437542   -0.1400
      5 O5         -4.3298    2.2320   64.5518 O.3     1  ZINC000496437542   -0.3600
      6 C6         -4.7616    2.9509   65.6051 C.2     1  ZINC000496437542    0.6600
      7 O7         -4.1971    3.9833   65.9084 O.2     1  ZINC000496437542   -0.5600
      8 N8         -5.8199    2.5254   66.3230 N.am    1  ZINC000496437542   -0.6000
      9 C9         -6.3098    3.2942   67.4782 C.3     1  ZINC000496437542    0.0800
     10 C10        -7.8219    3.4919   67.3212 C.3     1  ZINC000496437542    0.0500
     11 O11        -8.4413    2.2237   67.0937 O.3     1  ZINC000496437542   -0.3700
     12 C12        -8.0216    1.5748   65.8909 C.3     1  ZINC000496437542    0.0700
     13 H13        -8.2175    2.2255   65.0387 H       1  ZINC000496437542    0.0700
     14 C14        -8.7931    0.2645   65.7212 C.3     1  ZINC000496437542    0.1300
     15 N15        -8.7857   -0.1274   64.3097 N.am    1  ZINC000496437542   -0.7200
     16 C16        -9.9389   -0.1582   63.6127 C.2     1  ZINC000496437542    0.5600
     17 O17       -10.9855    0.1407   64.1553 O.2     1  ZINC000496437542   -0.5400
     18 C18        -9.9318   -0.5534   62.1958 C.2     1  ZINC000496437542   -0.1900
     19 C19        -9.3448   -1.6727   61.8311 C.2     1  ZINC000496437542   -0.0600
     20 C20        -9.3311   -2.0889   60.3753 C.3     1  ZINC000496437542   -0.1000
     21 C21       -10.7436   -2.5252   59.9798 C.3     1  ZINC000496437542   -0.1100
     22 C22       -11.5784   -1.3304   59.5564 C.3     1  ZINC000496437542   -0.1200
     23 C23       -11.8793   -0.3613   60.6852 C.3     1  ZINC000496437542   -0.1200
     24 C24       -10.6055    0.3270   61.1645 C.3     1  ZINC000496437542   -0.0800
     25 C25        -6.5234    1.2818   65.9712 C.3     1  ZINC000496437542    0.1000
     26 H26        -2.2322    3.5408   65.5824 H       1  ZINC000496437542    0.0900
     27 H27        -1.7444    1.8823   65.1587 H       1  ZINC000496437542    0.0600
     28 H28        -1.1323    3.2593   64.2116 H       1  ZINC000496437542    0.0700
     29 H29        -2.6759    4.5290   62.7123 H       1  ZINC000496437542    0.0700
     30 H30        -4.3877    4.0564   62.5913 H       1  ZINC000496437542    0.0600
     31 H31        -3.7759    4.8105   64.0832 H       1  ZINC000496437542    0.0900
     32 H32        -2.6033    0.8238   63.0648 H       1  ZINC000496437542    0.0700
     33 H33        -3.7029    1.7284   61.9967 H       1  ZINC000496437542    0.0700
     34 H34        -1.9911    2.2010   62.1177 H       1  ZINC000496437542    0.0800
     35 H35        -6.1048    2.7458   68.3977 H       1  ZINC000496437542    0.0800
     36 H36        -5.8141    4.2644   67.5105 H       1  ZINC000496437542    0.1000
     37 H37        -8.2271    3.9372   68.2299 H       1  ZINC000496437542    0.1100
     38 H38        -8.0171    4.1496   66.4742 H       1  ZINC000496437542    0.0600
     39 H39        -8.3197   -0.5157   66.3174 H       1  ZINC000496437542    0.0900
     40 H40        -9.8217    0.4027   66.0546 H       1  ZINC000496437542    0.0800
     41 H41        -7.9509   -0.3645   63.8765 H       1  ZINC000496437542    0.4000
     42 H42        -8.8702   -2.2976   62.5733 H       1  ZINC000496437542    0.1300
     43 H43        -9.0216   -1.2464   59.7568 H       1  ZINC000496437542    0.0800
     44 H44        -8.6395   -2.9201   60.2387 H       1  ZINC000496437542    0.0800
     45 H45       -10.6821   -3.2312   59.1517 H       1  ZINC000496437542    0.0700
     46 H46       -11.2201   -3.0121   60.8307 H       1  ZINC000496437542    0.0700
     47 H47       -11.0455   -0.7947   58.7708 H       1  ZINC000496437542    0.0600
     48 H48       -12.5219   -1.6924   59.1480 H       1  ZINC000496437542    0.0600
     49 H49       -12.5838    0.3921   60.3328 H       1  ZINC000496437542    0.0700
     50 H50       -12.3250   -0.9068   61.5169 H       1  ZINC000496437542    0.0600
     51 H51       -10.8555    1.2888   61.6125 H       1  ZINC000496437542    0.0700
     52 H52        -9.9311    0.4771   60.3214 H       1  ZINC000496437542    0.0800
     53 H53        -6.1683    0.9175   65.0071 H       1  ZINC000496437542    0.1100
     54 H54        -6.3368    0.5311   66.7392 H       1  ZINC000496437542    0.0900
@<TRIPOS>BOND
     1     1     2    1
     2     1    26    1
     3     1    27    1
     4     1    28    1
     5     2     3    1
     6     2     4    1
     7     2     5    1
     8     3    29    1
     9     3    30    1
    10     3    31    1
    11     4    32    1
    12     4    33    1
    13     4    34    1
    14     5     6    1
    15     6     7    2
    16     6     8   am
    17     8    25    1
    18     8     9    1
    19     9    10    1
    20     9    35    1
    21     9    36    1
    22    10    11    1
    23    10    37    1
    24    10    38    1
    25    11    12    1
    26    12    13    1
    27    12    14    1
    28    12    25    1
    29    14    15    1
    30    14    39    1
    31    14    40    1
    32    15    16   am
    33    15    41    1
    34    16    17    2
    35    16    18    1
    36    18    24    1
    37    18    19    2
    38    19    20    1
    39    19    42    1
    40    20    21    1
    41    20    43    1
    42    20    44    1
    43    21    22    1
    44    21    45    1
    45    21    46    1
    46    22    23    1
    47    22    47    1
    48    22    48    1
    49    23    24    1
    50    23    49    1
    51    23    50    1
    52    24    51    1
    53    24    52    1
    54    25    53    1
    55    25    54    1
@<TRIPOS>SUBSTRUCTURE
     1 ZINC000496437542        1 TEMP              0 ****  ****    0 ROOT


##########                                Name:    ZINC000326056918
##########                DOCK_Rotatable_Bonds:                   6
##########                         Heavy_Atoms:                  24
##########                    Molecular_Weight:             408.326
##########                DOCK_Rotatable_Bonds:                   6
##########                       Formal_Charge:         -0.00999978
##########                     HBond_Acceptors:                   9
##########                        HBond_Donors:                   0
##########                         Heavy_Atoms:                  24
##########                          Grid_Score:          -29.896030
##########                     Grid_vdw_energy:          -29.825638
##########                      Grid_es_energy:           -0.070393
##########           Internal_energy_repulsive:           23.064184

@<TRIPOS>MOLECULE
ZINC000326056918
 39 40 1 0 0
SMALL
USER_CHARGES


@<TRIPOS>ATOM
      1 C1         -8.6537    2.7848   53.2378 C.3     1  ZINC000326056918    0.0400
      2 O2         -9.6843    2.0978   52.4802 O.3     1  ZINC000326056918   -0.3500
      3 C3        -10.8470    1.8461   53.1165 C.2     1  ZINC000326056918    0.5000
      4 O4        -10.9989    2.2028   54.2693 O.2     1  ZINC000326056918   -0.4300
      5 C5        -11.9256    1.1435   52.4194 C.2     1  ZINC000326056918   -0.1600
      6 C6        -11.9995   -0.2088   52.2304 C.2     1  ZINC000326056918   -0.6200
      7 S7        -10.7770   -1.3365   52.8124 S.o2    1  ZINC000326056918    2.6900
      8 O8        -10.2120   -1.9459   51.6598 O.2     1  ZINC000326056918   -0.9100
      9 O9        -10.0062   -0.6310   53.7753 O.2     1  ZINC000326056918   -0.9400
     10 N10       -11.5687   -2.5361   53.6350 N.am    1  ZINC000326056918   -0.9900
     11 C11       -11.4547   -3.9273   53.1906 C.3     1  ZINC000326056918    0.0900
     12 C12       -12.3832   -2.2060   54.8072 C.3     1  ZINC000326056918    0.1500
     13 C13       -11.6392   -2.5902   56.0601 C.ar    1  ZINC000326056918   -0.0900
     14 C14       -10.7536   -1.7004   56.6380 C.ar    1  ZINC000326056918   -0.0800
     15 C15       -10.0704   -2.0523   57.7871 C.ar    1  ZINC000326056918   -0.1100
     16 C16       -10.2730   -3.2953   58.3595 C.ar    1  ZINC000326056918   -0.0200
     17 Cl17       -9.4154   -3.7367   59.8028 Cl      1  ZINC000326056918   -0.0600
     18 C18       -11.1598   -4.1862   57.7817 C.ar    1  ZINC000326056918   -0.1100
     19 C19       -11.8470   -3.8317   56.6350 C.ar    1  ZINC000326056918   -0.0300
     20 Cl20      -12.9603   -4.9488   55.9095 Cl      1  ZINC000326056918   -0.0100
     21 C21       -13.1224   -0.6007   51.5421 C.2     1  ZINC000326056918   -0.0400
     22 C22       -13.4106   -2.0445   51.2205 C.3     1  ZINC000326056918   -0.1100
     23 C23       -13.9416    0.3935   51.1786 C.2     1  ZINC000326056918   -0.2600
     24 S24       -13.3380    1.9025   51.6975 S.3     1  ZINC000326056918    0.3100
     25 H25        -7.7734    2.9243   52.6102 H       1  ZINC000326056918    0.1100
     26 H26        -9.0270    3.7565   53.5610 H       1  ZINC000326056918    0.0700
     27 H27        -8.3867    2.1894   54.1110 H       1  ZINC000326056918    0.0700
     28 H28       -10.5548   -4.3720   53.6156 H       1  ZINC000326056918    0.0600
     29 H29       -12.3285   -4.4877   53.5228 H       1  ZINC000326056918    0.0700
     30 H30       -11.3958   -3.9576   52.1025 H       1  ZINC000326056918    0.0900
     31 H31       -12.5857   -1.1351   54.8190 H       1  ZINC000326056918    0.1100
     32 H32       -13.3246   -2.7534   54.7613 H       1  ZINC000326056918    0.0900
     33 H33       -10.5950   -0.7299   56.1914 H       1  ZINC000326056918    0.1400
     34 H34        -9.3779   -1.3567   58.2378 H       1  ZINC000326056918    0.1400
     35 H35       -11.3184   -5.1568   58.2282 H       1  ZINC000326056918    0.1500
     36 H36       -13.8862   -2.5199   52.0783 H       1  ZINC000326056918    0.0900
     37 H37       -14.0768   -2.0989   50.3594 H       1  ZINC000326056918    0.0700
     38 H38       -12.4775   -2.5590   50.9910 H       1  ZINC000326056918    0.0900
     39 H39       -14.8638    0.2580   50.6329 H       1  ZINC000326056918    0.1800
@<TRIPOS>BOND
     1     1     2    1
     2     1    25    1
     3     1    26    1
     4     1    27    1
     5     2     3    1
     6     3     4    2
     7     3     5    1
     8     5    24    1
     9     5     6    2
    10     6     7    1
    11     6    21    1
    12     7     8    2
    13     7     9    2
    14     7    10   am
    15    10    11    1
    16    10    12    1
    17    11    28    1
    18    11    29    1
    19    11    30    1
    20    12    13    1
    21    12    31    1
    22    12    32    1
    23    13    19   ar
    24    13    14   ar
    25    14    15   ar
    26    14    33    1
    27    15    16   ar
    28    15    34    1
    29    16    17    1
    30    16    18   ar
    31    18    19   ar
    32    18    35    1
    33    19    20    1
    34    21    22    1
    35    21    23    2
    36    22    36    1
    37    22    37    1
    38    22    38    1
    39    23    24    1
    40    23    39    1
@<TRIPOS>SUBSTRUCTURE
     1 ZINC000326056918        1 TEMP              0 ****  ****    0 ROOT


##########                                Name:    ZINC000285228948
##########                DOCK_Rotatable_Bonds:                   8
##########                         Heavy_Atoms:                  23
##########                    Molecular_Weight:             339.822
##########                DOCK_Rotatable_Bonds:                   8
##########                       Formal_Charge:           0.0299997
##########                     HBond_Acceptors:                   7
##########                        HBond_Donors:                   3
##########                         Heavy_Atoms:                  23
##########                          Grid_Score:          -29.847229
##########                     Grid_vdw_energy:          -29.017056
##########                      Grid_es_energy:           -0.830173
##########           Internal_energy_repulsive:           21.598053

@<TRIPOS>MOLECULE
ZINC000285228948
 45 46 1 0 0
SMALL
USER_CHARGES


@<TRIPOS>ATOM
      1 C1        -14.3940   -5.7550   54.7243 C.3     1  <0>        -0.1600
      2 C2        -13.6541   -4.9670   55.8072 C.3     1  <0>         0.1800
      3 H3        -13.0468   -5.6493   56.4020 H       1  <0>         0.1100
      4 C4        -14.6545   -4.2776   56.6987 C.ar    1  <0>        -0.0900
      5 C5        -15.2947   -3.1324   56.2629 C.ar    1  <0>        -0.1000
      6 C6        -16.2122   -2.4997   57.0801 C.ar    1  <0>        -0.1100
      7 C7        -16.4901   -3.0125   58.3346 C.ar    1  <0>        -0.0300
      8 Cl8       -17.6429   -2.2187   59.3615 Cl      1  <0>        -0.0700
      9 C9        -15.8491   -4.1587   58.7704 C.ar    1  <0>        -0.1100
     10 C10       -14.9359   -4.7938   57.9499 C.ar    1  <0>        -0.0900
     11 N11       -12.7894   -3.9659   55.1778 N.am    1  <0>        -0.6100
     12 C12       -13.0300   -3.5576   53.7916 C.3     1  <0>         0.0600
     13 C13       -11.7725   -3.4203   55.8741 C.2     1  <0>         0.5200
     14 O14       -11.0557   -2.5925   55.3525 O.2     1  <0>        -0.5200
     15 C15       -11.5260   -3.8388   57.3006 C.3     1  <0>         0.0300
     16 N16       -10.7156   -2.8176   57.9775 N.3     1  <0>        -0.4900
     17 C17        -9.8354   -3.4313   59.0045 C.3     1  <0>         0.0400
     18 C18        -9.4868   -2.2393   59.9309 C.3     1  <0>        -0.1400
     19 C19       -10.8069   -1.4358   59.9718 C.3     1  <0>         0.1100
     20 O20       -11.5574   -1.7741   61.1399 O.3     1  <0>        -0.5400
     21 C21       -10.5199    0.0434   59.9458 C.2     1  <0>         0.5000
     22 N22       -10.7544    0.7947   61.0399 N.am    1  <0>        -0.8500
     23 O23       -10.0779    0.5578   58.9403 O.2     1  <0>        -0.5200
     24 C24       -11.5731   -1.8561   58.7039 C.3     1  <0>         0.0600
     25 H25       -15.0373   -6.4999   55.1926 H       1  <0>         0.0700
     26 H26       -15.0013   -5.0727   54.1294 H       1  <0>         0.0600
     27 H27       -13.6704   -6.2537   54.0794 H       1  <0>         0.0700
     28 H28       -15.0773   -2.7320   55.2837 H       1  <0>         0.1400
     29 H29       -16.7120   -1.6049   56.7396 H       1  <0>         0.1300
     30 H30       -16.0654   -4.5593   59.7496 H       1  <0>         0.1400
     31 H31       -14.4358   -5.6886   58.2898 H       1  <0>         0.1300
     32 H32       -13.7475   -2.7373   53.7737 H       1  <0>         0.0600
     33 H33       -12.0928   -3.2305   53.3412 H       1  <0>         0.0800
     34 H34       -13.4286   -4.4014   53.2283 H       1  <0>         0.0800
     35 H35       -12.4797   -3.9472   57.8174 H       1  <0>         0.1100
     36 H36       -10.9957   -4.7910   57.3134 H       1  <0>         0.0700
     37 H37       -10.3696   -4.2043   59.5569 H       1  <0>         0.0400
     38 H38        -8.9343   -3.8382   58.5455 H       1  <0>         0.1200
     39 H39        -9.2180   -2.5906   60.9271 H       1  <0>         0.0900
     40 H40        -8.6835   -1.6399   59.5024 H       1  <0>         0.0900
     41 H41       -11.8211   -2.7034   61.1825 H       1  <0>         0.3800
     42 H42       -10.5708    1.7469   61.0229 H       1  <0>         0.4000
     43 H43       -11.1068    0.3830   61.8445 H       1  <0>         0.4100
     44 H44       -11.7643   -0.9835   58.0792 H       1  <0>         0.1100
     45 H45       -12.5141   -2.3322   58.9794 H       1  <0>         0.0700
@<TRIPOS>BOND
     1     1     2    1
     2     1    25    1
     3     1    26    1
     4     1    27    1
     5     2     3    1
     6     2     4    1
     7     2    11    1
     8     4    10   ar
     9     4     5   ar
    10     5     6   ar
    11     5    28    1
    12     6     7   ar
    13     6    29    1
    14     7     8    1
    15     7     9   ar
    16     9    10   ar
    17     9    30    1
    18    10    31    1
    19    11    12    1
    20    11    13   am
    21    12    32    1
    22    12    33    1
    23    12    34    1
    24    13    14    2
    25    13    15    1
    26    15    16    1
    27    15    35    1
    28    15    36    1
    29    16    24    1
    30    16    17    1
    31    17    18    1
    32    17    37    1
    33    17    38    1
    34    18    19    1
    35    18    39    1
    36    18    40    1
    37    19    20    1
    38    19    21    1
    39    19    24    1
    40    20    41    1
    41    21    22   am
    42    21    23    2
    43    22    42    1
    44    22    43    1
    45    24    44    1
    46    24    45    1
@<TRIPOS>SUBSTRUCTURE
     1 <0>         1 TEMP              0 ****  ****    0 ROOT


##########                                Name:    ZINC000587344575
##########                DOCK_Rotatable_Bonds:                   7
##########                         Heavy_Atoms:                  30
##########                    Molecular_Weight:             408.475
##########                DOCK_Rotatable_Bonds:                   7
##########                       Formal_Charge:          -0.0100002
##########                     HBond_Acceptors:                   7
##########                        HBond_Donors:                   2
##########                         Heavy_Atoms:                  30
##########                          Grid_Score:          -29.819756
##########                     Grid_vdw_energy:          -28.970680
##########                      Grid_es_energy:           -0.849076
##########           Internal_energy_repulsive:           13.288019

@<TRIPOS>MOLECULE
ZINC000587344575
 55 57 1 0 0
SMALL
USER_CHARGES


@<TRIPOS>ATOM
      1 C1        -15.3303    0.2636   53.1328 C.3     1  ZINC000587344575   -0.1200
      2 C2        -14.1095   -0.6156   53.2211 C.ar    1  ZINC000587344575    0.0000
      3 C3        -13.3122   -0.5770   54.3425 C.ar    1  ZINC000587344575   -0.1600
      4 C4        -12.1851   -1.3888   54.4250 C.ar    1  ZINC000587344575    0.1800
      5 N5        -11.3798   -1.3474   55.5627 N.am    1  ZINC000587344575   -0.6700
      6 C6        -11.6965   -2.0928   56.6400 C.2     1  ZINC000587344575    0.5200
      7 O7        -12.6820   -2.7994   56.6199 O.2     1  ZINC000587344575   -0.5000
      8 C8        -10.8263   -2.0482   57.8695 C.3     1  ZINC000587344575   -0.1200
      9 H9         -9.8083   -1.7656   57.6016 H       1  ZINC000587344575    0.1100
     10 C10       -10.8325   -3.4206   58.5812 C.3     1  ZINC000587344575   -0.1200
     11 C11       -10.8606   -3.0329   60.0811 C.3     1  ZINC000587344575    0.0400
     12 N12       -11.7451   -1.8399   60.1073 N.3     1  ZINC000587344575   -0.4800
     13 C13       -11.5364   -1.0888   61.2621 C.ar    1  ZINC000587344575    0.0700
     14 C14       -10.2877   -0.5288   61.5092 C.ar    1  ZINC000587344575   -0.1200
     15 C15       -10.0773    0.2139   62.6498 C.ar    1  ZINC000587344575   -0.0700
     16 C16       -11.1202    0.4058   63.5601 C.ar    1  ZINC000587344575    0.0000
     17 C17       -10.9041    1.1781   64.7465 C.1     1  ZINC000587344575    0.2500
     18 N18       -10.7327    1.7906   65.6877 N.1     1  ZINC000587344575   -0.4000
     19 C19       -12.3755   -0.1577   63.3098 C.ar    1  ZINC000587344575   -0.1000
     20 C20       -12.5810   -0.8955   62.1642 C.ar    1  ZINC000587344575    0.1300
     21 F21       -13.7931   -1.4401   61.9204 F       1  ZINC000587344575   -0.1200
     22 C22       -11.4033   -1.0571   58.8971 C.3     1  ZINC000587344575    0.0500
     23 C23       -11.8601   -2.2419   53.3754 C.ar    1  ZINC000587344575   -0.1400
     24 C24       -12.6533   -2.2855   52.2508 C.ar    1  ZINC000587344575   -0.0600
     25 C25       -13.7888   -1.4754   52.1669 C.ar    1  ZINC000587344575   -0.1600
     26 C26       -14.6418   -1.5199   50.9631 C.2     1  ZINC000587344575    0.5600
     27 O27       -15.7939   -1.8989   51.0481 O.2     1  ZINC000587344575   -0.5300
     28 N28       -14.1434   -1.1405   49.7698 N.am    1  ZINC000587344575   -0.7200
     29 C29       -14.9895   -1.1863   48.5746 C.3     1  ZINC000587344575    0.1400
     30 C30       -14.4644   -0.1895   47.5395 C.3     1  ZINC000587344575   -0.1600
     31 C31       -14.9615   -2.5974   47.9838 C.3     1  ZINC000587344575   -0.1600
     32 H32       -16.2106   -0.3060   53.4303 H       1  ZINC000587344575    0.0800
     33 H33       -15.2101    1.1198   53.7966 H       1  ZINC000587344575    0.0600
     34 H34       -15.4529    0.6131   52.1076 H       1  ZINC000587344575    0.1000
     35 H35       -13.5615    0.0845   55.1591 H       1  ZINC000587344575    0.1300
     36 H36       -10.5917   -0.7823   55.5787 H       1  ZINC000587344575    0.4100
     37 H37       -11.7225   -3.9901   58.3133 H       1  ZINC000587344575    0.0900
     38 H38        -9.9285   -3.9818   58.3448 H       1  ZINC000587344575    0.0900
     39 H39       -11.2847   -3.8395   60.6791 H       1  ZINC000587344575    0.0900
     40 H40        -9.8603   -2.7780   60.4313 H       1  ZINC000587344575    0.0600
     41 H41        -9.4815   -0.6770   60.8059 H       1  ZINC000587344575    0.1400
     42 H42        -9.1068    0.6476   62.8408 H       1  ZINC000587344575    0.1400
     43 H43       -13.1837   -0.0113   64.0111 H       1  ZINC000587344575    0.1500
     44 H44       -10.6598   -0.2989   59.1431 H       1  ZINC000587344575    0.0600
     45 H45       -12.2997   -0.5851   58.4948 H       1  ZINC000587344575    0.1100
     46 H46       -10.9844   -2.8704   53.4424 H       1  ZINC000587344575    0.1400
     47 H47       -12.4005   -2.9480   51.4362 H       1  ZINC000587344575    0.1300
     48 H48       -13.2246   -0.8370   49.7022 H       1  ZINC000587344575    0.4000
     49 H49       -16.0129   -0.9254   48.8438 H       1  ZINC000587344575    0.0900
     50 H50       -13.4409   -0.4505   47.2703 H       1  ZINC000587344575    0.0600
     51 H51       -15.0939   -0.2236   46.6503 H       1  ZINC000587344575    0.0700
     52 H52       -14.4844    0.8158   47.9604 H       1  ZINC000587344575    0.0600
     53 H53       -13.9380   -2.8584   47.7146 H       1  ZINC000587344575    0.0600
     54 H54       -15.3355   -3.3075   48.7212 H       1  ZINC000587344575    0.0600
     55 H55       -15.5910   -2.6315   47.0947 H       1  ZINC000587344575    0.0700
@<TRIPOS>BOND
     1     1     2    1
     2     1    32    1
     3     1    33    1
     4     1    34    1
     5     2    25   ar
     6     2     3   ar
     7     3     4   ar
     8     3    35    1
     9     4     5    1
    10     4    23   ar
    11     5     6   am
    12     5    36    1
    13     6     7    2
    14     6     8    1
    15     8     9    1
    16     8    22    1
    17     8    10    1
    18    10    11    1
    19    10    37    1
    20    10    38    1
    21    11    12    1
    22    11    39    1
    23    11    40    1
    24    12    13    1
    25    12    22    1
    26    13    20   ar
    27    13    14   ar
    28    14    15   ar
    29    14    41    1
    30    15    16   ar
    31    15    42    1
    32    16    17    1
    33    16    19   ar
    34    17    18    3
    35    19    20   ar
    36    19    43    1
    37    20    21    1
    38    22    44    1
    39    22    45    1
    40    23    24   ar
    41    23    46    1
    42    24    25   ar
    43    24    47    1
    44    25    26    1
    45    26    27    2
    46    26    28   am
    47    28    29    1
    48    28    48    1
    49    29    30    1
    50    29    31    1
    51    29    49    1
    52    30    50    1
    53    30    51    1
    54    30    52    1
    55    31    53    1
    56    31    54    1
    57    31    55    1
@<TRIPOS>SUBSTRUCTURE
     1 ZINC000587344575        1 TEMP              0 ****  ****    0 ROOT


##########                                Name:    ZINC000648570180
##########                DOCK_Rotatable_Bonds:                   4
##########                         Heavy_Atoms:                  25
##########                    Molecular_Weight:             342.484
##########                DOCK_Rotatable_Bonds:                   4
##########                       Formal_Charge:          0.00999971
##########                     HBond_Acceptors:                   5
##########                        HBond_Donors:                   0
##########                         Heavy_Atoms:                  25
##########                          Grid_Score:          -29.761417
##########                     Grid_vdw_energy:          -28.031118
##########                      Grid_es_energy:           -1.730300
##########           Internal_energy_repulsive:           81.009438

@<TRIPOS>MOLECULE
ZINC000648570180
 55 58 1 0 0
SMALL
USER_CHARGES


@<TRIPOS>ATOM
      1 C1         -2.2848    3.1280   56.2190 C.3     1  ZINC000648570180   -0.1500
      2 C2         -2.4902    4.4200   55.4256 C.3     1  ZINC000648570180   -0.0600
      3 C3         -1.9576    5.6134   56.2213 C.3     1  ZINC000648570180   -0.1400
      4 C4         -1.7680    4.3256   54.0657 C.3     1  ZINC000648570180   -0.1200
      5 C5         -2.7141    5.0574   53.0816 C.3     1  ZINC000648570180   -0.1300
      6 C6         -4.1186    4.6354   53.5802 C.3     1  ZINC000648570180   -0.1200
      7 C7         -3.9847    4.6170   55.1169 C.3     1  ZINC000648570180   -0.0700
      8 H8         -4.3304    5.5632   55.5333 H       1  ZINC000648570180    0.0800
      9 C9         -4.7983    3.4600   55.7001 C.3     1  ZINC000648570180   -0.1000
     10 H10        -4.2916    2.5084   55.5387 H       1  ZINC000648570180    0.1000
     11 C11        -5.0874    3.6874   57.2074 C.3     1  ZINC000648570180   -0.1400
     12 C12        -6.3895    2.8907   57.4338 C.3     1  ZINC000648570180    0.1200
     13 N13        -7.0460    2.7466   56.1262 N.am    1  ZINC000648570180   -0.6000
     14 C14        -8.2027    2.0945   55.8956 C.2     1  ZINC000648570180    0.5800
     15 O15        -8.6539    2.0379   54.7692 O.2     1  ZINC000648570180   -0.5200
     16 C16        -8.9255    1.4453   57.0183 C.ar    1  ZINC000648570180    0.1600
     17 C17        -9.6076    2.2149   57.9603 C.ar    1  ZINC000648570180   -0.2000
     18 C18       -10.2692    1.5630   58.9920 C.ar    1  ZINC000648570180    0.1800
     19 N19       -10.2330    0.2437   59.0500 N.ar    1  ZINC000648570180   -0.5400
     20 C20        -9.5758   -0.4612   58.1395 C.ar    1  ZINC000648570180    0.4800
     21 N21        -9.5625   -1.8421   58.2366 N.3     1  ZINC000648570180   -0.4400
     22 C22        -9.6324   -2.2767   59.6552 C.3     1  ZINC000648570180    0.0500
     23 C23       -10.1309   -3.7402   59.5535 C.3     1  ZINC000648570180   -0.1200
     24 C24       -11.1413   -3.6807   58.3848 C.3     1  ZINC000648570180   -0.1300
     25 C25       -10.7471   -2.4314   57.5755 C.3     1  ZINC000648570180    0.0400
     26 N26        -8.9368    0.1200   57.1378 N.ar    1  ZINC000648570180   -0.5000
     27 C27        -6.2297    3.4340   55.1084 C.3     1  ZINC000648570180    0.1100
     28 H28        -2.7640    2.3004   55.6961 H       1  ZINC000648570180    0.0600
     29 H29        -1.2178    2.9272   56.3162 H       1  ZINC000648570180    0.0500
     30 H30        -2.7260    3.2360   57.2098 H       1  ZINC000648570180    0.0700
     31 H31        -0.8962    5.4703   56.4243 H       1  ZINC000648570180    0.0500
     32 H32        -2.0970    6.5269   55.6431 H       1  ZINC000648570180    0.0500
     33 H33        -2.5001    5.6933   57.1633 H       1  ZINC000648570180    0.0500
     34 H34        -0.8019    4.8283   54.1112 H       1  ZINC000648570180    0.0600
     35 H35        -1.6434    3.2835   53.7716 H       1  ZINC000648570180    0.0700
     36 H36        -2.5867    6.1375   53.1543 H       1  ZINC000648570180    0.0700
     37 H37        -2.5481    4.7155   52.0600 H       1  ZINC000648570180    0.0700
     38 H38        -4.8679    5.3643   53.2713 H       1  ZINC000648570180    0.0700
     39 H39        -4.3736    3.6434   53.2076 H       1  ZINC000648570180    0.0700
     40 H40        -4.2792    3.2876   57.8198 H       1  ZINC000648570180    0.0900
     41 H41        -5.2422    4.7463   57.4148 H       1  ZINC000648570180    0.0800
     42 H42        -6.1561    1.9073   57.8418 H       1  ZINC000648570180    0.0800
     43 H43        -7.0417    3.4331   58.1182 H       1  ZINC000648570180    0.0700
     44 H44        -9.6206    3.2925   57.8890 H       1  ZINC000648570180    0.1600
     45 H45       -10.8071    2.1279   59.7389 H       1  ZINC000648570180    0.1800
     46 H46        -8.6466   -2.2374   60.1186 H       1  ZINC000648570180    0.1000
     47 H47       -10.3441   -1.6654   60.2101 H       1  ZINC000648570180    0.0500
     48 H48        -9.3066   -4.4128   59.3169 H       1  ZINC000648570180    0.0800
     49 H49       -10.6256   -4.0441   60.4760 H       1  ZINC000648570180    0.0800
     50 H50       -11.0572   -4.5742   57.7663 H       1  ZINC000648570180    0.0800
     51 H51       -12.1568   -3.5787   58.7675 H       1  ZINC000648570180    0.0700
     52 H52       -11.5678   -1.7142   57.5763 H       1  ZINC000648570180    0.0900
     53 H53       -10.4989   -2.7146   56.5526 H       1  ZINC000648570180    0.0900
     54 H54        -6.5936    4.4496   54.9529 H       1  ZINC000648570180    0.0700
     55 H55        -6.2440    2.8775   54.1714 H       1  ZINC000648570180    0.0800
@<TRIPOS>BOND
     1     1     2    1
     2     1    28    1
     3     1    29    1
     4     1    30    1
     5     2     7    1
     6     2     3    1
     7     2     4    1
     8     3    31    1
     9     3    32    1
    10     3    33    1
    11     4     5    1
    12     4    34    1
    13     4    35    1
    14     5     6    1
    15     5    36    1
    16     5    37    1
    17     6     7    1
    18     6    38    1
    19     6    39    1
    20     7     8    1
    21     7     9    1
    22     9    10    1
    23     9    27    1
    24     9    11    1
    25    11    12    1
    26    11    40    1
    27    11    41    1
    28    12    13    1
    29    12    42    1
    30    12    43    1
    31    13    14   am
    32    13    27    1
    33    14    15    2
    34    14    16    1
    35    16    26   ar
    36    16    17   ar
    37    17    18   ar
    38    17    44    1
    39    18    19   ar
    40    18    45    1
    41    19    20   ar
    42    20    21    1
    43    20    26   ar
    44    21    25    1
    45    21    22    1
    46    22    23    1
    47    22    46    1
    48    22    47    1
    49    23    24    1
    50    23    48    1
    51    23    49    1
    52    24    25    1
    53    24    50    1
    54    24    51    1
    55    25    52    1
    56    25    53    1
    57    27    54    1
    58    27    55    1
@<TRIPOS>SUBSTRUCTURE
     1 ZINC000648570180        1 TEMP              0 ****  ****    0 ROOT


##########                                Name:    ZINC000506388363
##########                DOCK_Rotatable_Bonds:                   5
##########                         Heavy_Atoms:                  29
##########                    Molecular_Weight:             416.858
##########                DOCK_Rotatable_Bonds:                   5
##########                       Formal_Charge:         7.07805e-07
##########                     HBond_Acceptors:                   8
##########                        HBond_Donors:                   1
##########                         Heavy_Atoms:                  29
##########                          Grid_Score:          -29.753712
##########                     Grid_vdw_energy:          -29.513186
##########                      Grid_es_energy:           -0.240526
##########           Internal_energy_repulsive:           12.970819

@<TRIPOS>MOLECULE
ZINC000506388363
 48 51 1 0 0
SMALL
USER_CHARGES


@<TRIPOS>ATOM
      1 O1         -9.7019   -1.2443   62.7552 O.2     1  ZINC000506388363   -0.5300
      2 C2        -10.7063   -1.0414   62.1014 C.2     1  ZINC000506388363    0.5600
      3 C3        -11.5185    0.1687   62.3504 C.ar    1  ZINC000506388363   -0.1200
      4 C4        -10.9776    1.4348   62.1221 C.ar    1  ZINC000506388363   -0.0900
      5 C5        -11.7405    2.5606   62.3558 C.ar    1  ZINC000506388363   -0.1100
      6 C6        -13.0390    2.4368   62.8162 C.ar    1  ZINC000506388363   -0.0900
      7 C7        -13.5822    1.1837   63.0451 C.ar    1  ZINC000506388363   -0.0400
      8 Cl8       -15.2130    1.0386   63.6223 Cl      1  ZINC000506388363   -0.0600
      9 C9        -12.8312    0.0494   62.8095 C.ar    1  ZINC000506388363   -0.0600
     10 N10       -11.0766   -1.9166   61.1456 N.am    1  ZINC000506388363   -0.6100
     11 C11       -12.2815   -1.6840   60.3349 C.3     1  ZINC000506388363    0.1000
     12 C12       -11.9055   -1.8157   58.8552 C.3     1  ZINC000506388363    0.0400
     13 N13       -11.2482   -3.1107   58.6337 N.3     1  ZINC000506388363   -0.5300
     14 C14       -11.0264   -3.3503   57.2015 C.3     1  ZINC000506388363    0.1200
     15 C15       -12.3486   -3.6030   56.5239 C.2     1  ZINC000506388363   -0.2100
     16 C16       -13.3811   -4.3099   57.0328 C.2     1  ZINC000506388363    0.0600
     17 N17       -14.3786   -4.3048   56.1227 N.pl3   1  ZINC000506388363   -0.4700
     18 N18       -13.9503   -3.5693   55.0102 N.2     1  ZINC000506388363   -0.2700
     19 C19       -12.7296   -3.1390   55.2497 C.2     1  ZINC000506388363    0.1300
     20 C20       -11.8978   -2.3189   54.3344 C.ar    1  ZINC000506388363   -0.0700
     21 C21       -11.5614   -1.0093   54.6777 C.ar    1  ZINC000506388363    0.1500
     22 F22       -11.9919   -0.4836   55.8455 F       1  ZINC000506388363   -0.1200
     23 C23       -10.7861   -0.2506   53.8204 C.ar    1  ZINC000506388363   -0.1600
     24 C24       -10.3443   -0.7873   52.6250 C.ar    1  ZINC000506388363   -0.0500
     25 C25       -10.6742   -2.0849   52.2787 C.ar    1  ZINC000506388363   -0.1600
     26 C26       -11.4440   -2.8562   53.1296 C.ar    1  ZINC000506388363    0.1600
     27 F27       -11.7656   -4.1237   52.7900 F       1  ZINC000506388363   -0.1200
     28 C28        -9.9890   -3.2045   59.3845 C.3     1  ZINC000506388363    0.0400
     29 C29       -10.2830   -3.1264   60.8817 C.3     1  ZINC000506388363    0.1200
     30 H30        -9.9637    1.5333   61.7633 H       1  ZINC000506388363    0.1400
     31 H31       -11.3226    3.5407   62.1793 H       1  ZINC000506388363    0.1400
     32 H32       -13.6314    3.3212   62.9983 H       1  ZINC000506388363    0.1400
     33 H33       -13.2556   -0.9275   62.9878 H       1  ZINC000506388363    0.1400
     34 H34       -13.0409   -2.4241   60.5870 H       1  ZINC000506388363    0.0800
     35 H35       -12.6646   -0.6819   60.5275 H       1  ZINC000506388363    0.1000
     36 H36       -12.8063   -1.7559   58.2444 H       1  ZINC000506388363    0.0900
     37 H37       -11.2245   -1.0105   58.5799 H       1  ZINC000506388363    0.0400
     38 H38       -10.5511   -2.4764   56.7563 H       1  ZINC000506388363    0.1000
     39 H39       -10.3810   -4.2194   57.0742 H       1  ZINC000506388363    0.0400
     40 H40       -13.4046   -4.7942   57.9979 H       1  ZINC000506388363    0.1800
     41 H41       -15.2418   -4.7361   56.2218 H       1  ZINC000506388363    0.4400
     42 H42       -10.5252    0.7636   54.0848 H       1  ZINC000506388363    0.1500
     43 H43        -9.7392   -0.1904   51.9587 H       1  ZINC000506388363    0.1500
     44 H44       -10.3263   -2.4980   51.3435 H       1  ZINC000506388363    0.1500
     45 H45        -9.4998   -4.1517   59.1573 H       1  ZINC000506388363    0.0900
     46 H46        -9.3348   -2.3798   59.1017 H       1  ZINC000506388363    0.0400
     47 H47        -9.3463   -3.0803   61.4369 H       1  ZINC000506388363    0.1000
     48 H48       -10.8514   -4.0043   61.1894 H       1  ZINC000506388363    0.0800
@<TRIPOS>BOND
     1     1     2    2
     2     2     3    1
     3     2    10   am
     4     3     9   ar
     5     3     4   ar
     6     4     5   ar
     7     4    30    1
     8     5     6   ar
     9     5    31    1
    10     6     7   ar
    11     6    32    1
    12     7     8    1
    13     7     9   ar
    14     9    33    1
    15    10    29    1
    16    10    11    1
    17    11    12    1
    18    11    34    1
    19    11    35    1
    20    12    13    1
    21    12    36    1
    22    12    37    1
    23    13    14    1
    24    13    28    1
    25    14    15    1
    26    14    38    1
    27    14    39    1
    28    15    19    1
    29    15    16    2
    30    16    17    1
    31    16    40    1
    32    17    18    1
    33    17    41    1
    34    18    19    2
    35    19    20    1
    36    20    26   ar
    37    20    21   ar
    38    21    22    1
    39    21    23   ar
    40    23    24   ar
    41    23    42    1
    42    24    25   ar
    43    24    43    1
    44    25    26   ar
    45    25    44    1
    46    26    27    1
    47    28    29    1
    48    28    45    1
    49    28    46    1
    50    29    47    1
    51    29    48    1
@<TRIPOS>SUBSTRUCTURE
     1 ZINC000506388363        1 TEMP              0 ****  ****    0 ROOT


##########                                Name:    ZINC000928803822
##########                DOCK_Rotatable_Bonds:                   7
##########                         Heavy_Atoms:                  21
##########                    Molecular_Weight:             364.165
##########                DOCK_Rotatable_Bonds:                   7
##########                       Formal_Charge:         -0.00999978
##########                     HBond_Acceptors:                   7
##########                        HBond_Donors:                   1
##########                         Heavy_Atoms:                  21
##########                          Grid_Score:          -29.749683
##########                     Grid_vdw_energy:          -29.273907
##########                      Grid_es_energy:           -0.475776
##########           Internal_energy_repulsive:            7.133196

@<TRIPOS>MOLECULE
ZINC000928803822
 34 34 1 0 0
SMALL
USER_CHARGES


@<TRIPOS>ATOM
      1 C1        -13.4342   -2.1869   52.4037 C.3     1  ZINC000928803822    0.0900
      2 N2        -12.2195   -2.6217   53.0978 N.pl3   1  ZINC000928803822   -0.6300
      3 C3        -10.9497   -2.7015   52.3716 C.3     1  ZINC000928803822    0.0900
      4 C4        -12.2720   -2.9601   54.4523 C.ar    1  ZINC000928803822    0.2200
      5 C5        -13.0824   -4.0066   54.8759 C.ar    1  ZINC000928803822   -0.1500
      6 C6        -13.1378   -4.3455   56.2159 C.ar    1  ZINC000928803822   -0.0500
      7 Br7       -14.2430   -5.7714   56.7826 Br      1  ZINC000928803822   -0.0400
      8 C8        -12.3884   -3.6460   57.1409 C.ar    1  ZINC000928803822   -0.1200
      9 C9        -11.5714   -2.5933   56.7248 C.ar    1  ZINC000928803822   -0.0800
     10 C10       -10.7678   -1.8427   57.7133 C.2     1  ZINC000928803822    0.5700
     11 O11        -9.7497   -1.2771   57.3654 O.2     1  ZINC000928803822   -0.5100
     12 N12       -11.1642   -1.7855   59.0003 N.am    1  ZINC000928803822   -0.7200
     13 C13       -10.3671   -1.0433   59.9800 C.3     1  ZINC000928803822    0.1100
     14 H14        -9.5149   -0.5824   59.4806 H       1  ZINC000928803822    0.1400
     15 C15        -9.8667   -2.0024   61.0620 C.3     1  ZINC000928803822   -0.0300
     16 C16        -9.3720   -3.2374   60.4324 C.1     1  ZINC000928803822    0.2000
     17 N17        -8.9902   -4.1907   59.9465 N.1     1  ZINC000928803822   -0.4000
     18 C18       -11.2312    0.0438   60.6220 C.3     1  ZINC000928803822    0.4400
     19 F19       -11.4574    1.0674   59.6955 F       1  ZINC000928803822   -0.1800
     20 F20       -12.4553   -0.5062   61.0175 F       1  ZINC000928803822   -0.1700
     21 F21       -10.5710    0.5645   61.7401 F       1  ZINC000928803822   -0.1600
     22 C22       -11.5113   -2.2555   55.3731 C.ar    1  ZINC000928803822   -0.1200
     23 H23       -13.9407   -3.0541   51.9801 H       1  ZINC000928803822    0.0600
     24 H24       -14.0976   -1.6881   53.1103 H       1  ZINC000928803822    0.0700
     25 H25       -13.1682   -1.4951   51.6045 H       1  ZINC000928803822    0.0700
     26 H26       -10.4296   -1.7463   52.4430 H       1  ZINC000928803822    0.0500
     27 H27       -10.3306   -3.4858   52.8071 H       1  ZINC000928803822    0.0700
     28 H28       -11.1441   -2.9318   51.3241 H       1  ZINC000928803822    0.0700
     29 H29       -13.6710   -4.5568   54.1567 H       1  ZINC000928803822    0.1400
     30 H30       -12.4345   -3.9133   58.1864 H       1  ZINC000928803822    0.1300
     31 H31       -11.9773   -2.2359   59.2777 H       1  ZINC000928803822    0.4100
     32 H32        -9.0584   -1.5302   61.6204 H       1  ZINC000928803822    0.1400
     33 H33       -10.6849   -2.2430   61.7408 H       1  ZINC000928803822    0.1300
     34 H34       -10.8810   -1.4420   55.0456 H       1  ZINC000928803822    0.1500
@<TRIPOS>BOND
     1     1     2    1
     2     1    23    1
     3     1    24    1
     4     1    25    1
     5     2     3    1
     6     2     4    1
     7     3    26    1
     8     3    27    1
     9     3    28    1
    10     4    22   ar
    11     4     5   ar
    12     5     6   ar
    13     5    29    1
    14     6     7    1
    15     6     8   ar
    16     8     9   ar
    17     8    30    1
    18     9    10    1
    19     9    22   ar
    20    10    11    2
    21    10    12   am
    22    12    13    1
    23    12    31    1
    24    13    14    1
    25    13    15    1
    26    13    18    1
    27    15    16    1
    28    15    32    1
    29    15    33    1
    30    16    17    3
    31    18    19    1
    32    18    20    1
    33    18    21    1
    34    22    34    1
@<TRIPOS>SUBSTRUCTURE
     1 ZINC000928803822        1 TEMP              0 ****  ****    0 ROOT


##########                                Name:    ZINC000942661662
##########                DOCK_Rotatable_Bonds:                   6
##########                         Heavy_Atoms:                  25
##########                    Molecular_Weight:             343.426
##########                DOCK_Rotatable_Bonds:                   6
##########                       Formal_Charge:           0.0399997
##########                     HBond_Acceptors:                   6
##########                        HBond_Donors:                   1
##########                         Heavy_Atoms:                  25
##########                          Grid_Score:          -29.741827
##########                     Grid_vdw_energy:          -28.517824
##########                      Grid_es_energy:           -1.224003
##########           Internal_energy_repulsive:           26.545736

@<TRIPOS>MOLECULE
ZINC000942661662
 50 52 1 0 0
SMALL
USER_CHARGES


@<TRIPOS>ATOM
      1 C1        -10.9465    0.1704   62.4248 C.3     1  ZINC000942661662   -0.1700
      2 C2        -10.2993    0.3029   61.0448 C.3     1  ZINC000942661662    0.1000
      3 N3        -11.1650   -0.3160   60.0380 N.am    1  ZINC000942661662   -0.6000
      4 C4        -11.8837    0.4572   59.2001 C.2     1  ZINC000942661662    0.6000
      5 O5        -12.6024   -0.0566   58.3642 O.2     1  ZINC000942661662   -0.5200
      6 C6        -11.7989    1.9254   59.2969 C.2     1  ZINC000942661662   -0.2400
      7 C7        -11.1936    2.7760   58.4188 C.2     1  ZINC000942661662    0.0700
      8 C8        -10.4795    2.3756   57.1536 C.3     1  ZINC000942661662   -0.0900
      9 O9        -11.3418    4.0248   58.8713 O.3     1  ZINC000942661662   -0.1700
     10 C10       -12.0272    4.0382   60.0251 C.2     1  ZINC000942661662   -0.0300
     11 C11       -12.3542    2.7797   60.3566 C.2     1  ZINC000942661662   -0.1900
     12 C12       -11.2494   -1.7755   59.9418 C.3     1  ZINC000942661662    0.1400
     13 H13       -12.1338   -2.1485   60.4583 H       1  ZINC000942661662    0.1100
     14 C14        -9.9614   -2.4443   60.4906 C.3     1  ZINC000942661662   -0.1400
     15 C15        -9.9139   -3.7832   59.7246 C.3     1  ZINC000942661662    0.1000
     16 N16       -10.7150   -3.6159   58.5032 N.am    1  ZINC000942661662   -0.6200
     17 C17       -10.9394   -4.5666   57.5746 C.2     1  ZINC000942661662    0.6100
     18 O18       -10.4605   -5.6768   57.7126 O.2     1  ZINC000942661662   -0.5200
     19 C19       -11.7606   -4.2632   56.3978 C.2     1  ZINC000942661662   -0.0600
     20 C20       -13.1186   -4.4681   56.2770 C.2     1  ZINC000942661662   -0.0700
     21 C21       -14.0342   -5.0441   57.3261 C.3     1  ZINC000942661662   -0.0900
     22 C22       -13.4863   -4.0401   54.9974 C.2     1  ZINC000942661662   -0.2100
     23 C23       -12.3713   -3.5914   54.3730 C.2     1  ZINC000942661662    0.0500
     24 C24       -12.3140   -3.0370   52.9727 C.3     1  ZINC000942661662   -0.0900
     25 N25       -11.3167   -3.7163   55.2150 N.pl3   1  ZINC000942661662   -0.5400
     26 C26       -11.2343   -2.2362   58.4630 C.3     1  ZINC000942661662    0.0900
     27 H27       -10.3025    0.6309   63.1740 H       1  ZINC000942661662    0.0700
     28 H28       -11.9150    0.6705   62.4214 H       1  ZINC000942661662    0.0600
     29 H29       -11.0833   -0.8846   62.6622 H       1  ZINC000942661662    0.0600
     30 H30       -10.1626    1.3580   60.8075 H       1  ZINC000942661662    0.0900
     31 H31        -9.3308   -0.1972   61.0481 H       1  ZINC000942661662    0.0800
     32 H32       -11.1875    2.3645   56.3248 H       1  ZINC000942661662    0.0900
     33 H33        -9.6847    3.0912   56.9430 H       1  ZINC000942661662    0.0900
     34 H34       -10.0499    1.3816   57.2779 H       1  ZINC000942661662    0.1000
     35 H35       -12.2797    4.9212   60.5933 H       1  ZINC000942661662    0.2100
     36 H36       -12.9058    2.4593   61.2281 H       1  ZINC000942661662    0.1600
     37 H37        -9.0847   -1.8381   60.2624 H       1  ZINC000942661662    0.1000
     38 H38       -10.0435   -2.6167   61.5637 H       1  ZINC000942661662    0.0900
     39 H39        -8.8837   -4.0237   59.4621 H       1  ZINC000942661662    0.0700
     40 H40       -10.3370   -4.5773   60.3396 H       1  ZINC000942661662    0.0700
     41 H41       -14.4300   -4.2387   57.9448 H       1  ZINC000942661662    0.0700
     42 H42       -14.8578   -5.5683   56.8414 H       1  ZINC000942661662    0.0600
     43 H43       -13.4769   -5.7420   57.9511 H       1  ZINC000942661662    0.0800
     44 H44       -14.4825   -4.0638   54.5810 H       1  ZINC000942661662    0.1400
     45 H45       -12.4752   -1.9594   53.0017 H       1  ZINC000942661662    0.0800
     46 H46       -11.3362   -3.2466   52.5388 H       1  ZINC000942661662    0.0700
     47 H47       -13.0888   -3.5042   52.3650 H       1  ZINC000942661662    0.0900
     48 H48       -10.4008   -3.4672   55.0156 H       1  ZINC000942661662    0.4100
     49 H49       -12.2428   -2.2224   58.0498 H       1  ZINC000942661662    0.0800
     50 H50       -10.5738   -1.5993   57.8746 H       1  ZINC000942661662    0.1000
@<TRIPOS>BOND
     1     1     2    1
     2     1    27    1
     3     1    28    1
     4     1    29    1
     5     2     3    1
     6     2    30    1
     7     2    31    1
     8     3     4   am
     9     3    12    1
    10     4     5    2
    11     4     6    1
    12     6    11    1
    13     6     7    2
    14     7     8    1
    15     7     9    1
    16     8    32    1
    17     8    33    1
    18     8    34    1
    19     9    10    1
    20    10    11    2
    21    10    35    1
    22    11    36    1
    23    12    13    1
    24    12    26    1
    25    12    14    1
    26    14    15    1
    27    14    37    1
    28    14    38    1
    29    15    16    1
    30    15    39    1
    31    15    40    1
    32    16    17   am
    33    16    26    1
    34    17    18    2
    35    17    19    1
    36    19    25    1
    37    19    20    2
    38    20    21    1
    39    20    22    1
    40    21    41    1
    41    21    42    1
    42    21    43    1
    43    22    23    2
    44    22    44    1
    45    23    24    1
    46    23    25    1
    47    24    45    1
    48    24    46    1
    49    24    47    1
    50    25    48    1
    51    26    49    1
    52    26    50    1
@<TRIPOS>SUBSTRUCTURE
     1 ZINC000942661662        1 TEMP              0 ****  ****    0 ROOT


##########                                Name:    ZINC000298969660
##########                DOCK_Rotatable_Bonds:                  10
##########                         Heavy_Atoms:                  29
##########                    Molecular_Weight:             397.474
##########                DOCK_Rotatable_Bonds:                  10
##########                       Formal_Charge:          -0.0100008
##########                     HBond_Acceptors:                   7
##########                        HBond_Donors:                   2
##########                         Heavy_Atoms:                  29
##########                          Grid_Score:          -29.725853
##########                     Grid_vdw_energy:          -28.707088
##########                      Grid_es_energy:           -1.018764
##########           Internal_energy_repulsive:          166.132065

@<TRIPOS>MOLECULE
ZINC000298969660
 56 58 1 0 0
SMALL
USER_CHARGES


@<TRIPOS>ATOM
      1 C1        -10.1010    2.1323   58.1177 C.3     1  ZINC000298969660    0.0800
      2 N2        -10.9567    1.0755   58.6626 N.am    1  ZINC000298969660   -0.6300
      3 C3        -12.0064    1.4084   59.6287 C.3     1  ZINC000298969660    0.1400
      4 C4        -11.3785    1.6397   61.0046 C.3     1  ZINC000298969660    0.0700
      5 H5        -10.6181    2.4171   60.9312 H       1  ZINC000298969660    0.0500
      6 C6        -10.7347    0.3407   61.4969 C.3     1  ZINC000298969660   -0.1500
      7 C7        -10.1614    0.5638   62.8997 C.3     1  ZINC000298969660   -0.1200
      8 C8        -11.2819    1.0450   63.8267 C.3     1  ZINC000298969660   -0.1600
      9 C9        -11.9045    2.3167   63.2444 C.3     1  ZINC000298969660    0.0600
     10 O10       -12.3901    2.0482   61.9277 O.3     1  ZINC000298969660   -0.3600
     11 C11       -10.7783   -0.2029   58.2751 C.2     1  ZINC000298969660    0.7100
     12 O12        -9.9062   -0.4793   57.4743 O.2     1  ZINC000298969660   -0.5400
     13 N13       -11.5667   -1.1750   58.7751 N.am    1  ZINC000298969660   -0.6900
     14 C14       -11.3815   -2.5024   58.3727 C.ar    1  ZINC000298969660    0.2000
     15 C15       -10.5381   -3.3367   59.0948 C.ar    1  ZINC000298969660   -0.1800
     16 C16       -10.3547   -4.6471   58.6972 C.ar    1  ZINC000298969660   -0.0600
     17 C17       -11.0097   -5.1311   57.5810 C.ar    1  ZINC000298969660   -0.2300
     18 C18       -11.8538   -4.3018   56.8554 C.ar    1  ZINC000298969660    0.1500
     19 O19       -12.4969   -4.7791   55.7575 O.3     1  ZINC000298969660   -0.2900
     20 C20       -13.5855   -5.6772   55.9825 C.3     1  ZINC000298969660    0.0400
     21 C21       -14.6673   -4.9709   56.7583 C.2     1  ZINC000298969660    0.5100
     22 O22       -15.0838   -5.4501   57.7917 O.2     1  ZINC000298969660   -0.4900
     23 N23       -15.1720   -3.8069   56.3036 N.am    1  ZINC000298969660   -0.6700
     24 C24       -16.1766   -3.1510   57.0239 C.ar    1  ZINC000298969660    0.1400
     25 C25       -16.6514   -3.6960   58.2097 C.ar    1  ZINC000298969660   -0.1400
     26 C26       -17.6429   -3.0462   58.9183 C.ar    1  ZINC000298969660   -0.1000
     27 C27       -18.1633   -1.8545   58.4479 C.ar    1  ZINC000298969660   -0.1300
     28 C28       -17.6930   -1.3095   57.2672 C.ar    1  ZINC000298969660   -0.1000
     29 C29       -16.6968   -1.9510   56.5574 C.ar    1  ZINC000298969660   -0.1200
     30 C30       -12.0446   -2.9884   57.2545 C.ar    1  ZINC000298969660   -0.1500
     31 H31        -9.2238    2.2535   58.7533 H       1  ZINC000298969660    0.0600
     32 H32        -9.7849    1.8606   57.1104 H       1  ZINC000298969660    0.0700
     33 H33       -10.6572    3.0690   58.0837 H       1  ZINC000298969660    0.0800
     34 H34       -12.5217    2.3138   59.3077 H       1  ZINC000298969660    0.1000
     35 H35       -12.7195    0.5863   59.6884 H       1  ZINC000298969660    0.0900
     36 H36       -11.4864   -0.4479   61.5318 H       1  ZINC000298969660    0.0800
     37 H37        -9.9330    0.0513   60.8175 H       1  ZINC000298969660    0.0700
     38 H38        -9.7510   -0.3720   63.2790 H       1  ZINC000298969660    0.0700
     39 H39        -9.3750    1.3174   62.8566 H       1  ZINC000298969660    0.0600
     40 H40       -12.0445    0.2707   63.9087 H       1  ZINC000298969660    0.0700
     41 H41       -10.8714    1.2593   64.8135 H       1  ZINC000298969660    0.0700
     42 H42       -12.7307    2.6398   63.8777 H       1  ZINC000298969660    0.0900
     43 H43       -11.1509    3.1031   63.2006 H       1  ZINC000298969660    0.0400
     44 H44       -12.2625   -0.9545   59.4139 H       1  ZINC000298969660    0.4100
     45 H45       -10.0250   -2.9607   59.9677 H       1  ZINC000298969660    0.1300
     46 H46        -9.6980   -5.2942   59.2596 H       1  ZINC000298969660    0.1300
     47 H47       -10.8644   -6.1559   57.2725 H       1  ZINC000298969660    0.1300
     48 H48       -13.9844   -6.0117   55.0249 H       1  ZINC000298969660    0.1000
     49 H49       -13.2343   -6.5386   56.5507 H       1  ZINC000298969660    0.1000
     50 H50       -14.8389   -3.4237   55.4772 H       1  ZINC000298969660    0.4100
     51 H51       -16.2458   -4.6271   58.5772 H       1  ZINC000298969660    0.1300
     52 H52       -18.0125   -3.4695   59.8405 H       1  ZINC000298969660    0.1300
     53 H53       -18.9388   -1.3486   59.0036 H       1  ZINC000298969660    0.1200
     54 H54       -18.1018   -0.3790   56.9021 H       1  ZINC000298969660    0.1300
     55 H55       -16.3300   -1.5249   55.6353 H       1  ZINC000298969660    0.1300
     56 H56       -12.7010   -2.3418   56.6911 H       1  ZINC000298969660    0.1500
@<TRIPOS>BOND
     1     1     2    1
     2     1    31    1
     3     1    32    1
     4     1    33    1
     5     2     3    1
     6     2    11   am
     7     3     4    1
     8     3    34    1
     9     3    35    1
    10     4     5    1
    11     4    10    1
    12     4     6    1
    13     6     7    1
    14     6    36    1
    15     6    37    1
    16     7     8    1
    17     7    38    1
    18     7    39    1
    19     8     9    1
    20     8    40    1
    21     8    41    1
    22     9    10    1
    23     9    42    1
    24     9    43    1
    25    11    12    2
    26    11    13   am
    27    13    14    1
    28    13    44    1
    29    14    30   ar
    30    14    15   ar
    31    15    16   ar
    32    15    45    1
    33    16    17   ar
    34    16    46    1
    35    17    18   ar
    36    17    47    1
    37    18    19    1
    38    18    30   ar
    39    19    20    1
    40    20    21    1
    41    20    48    1
    42    20    49    1
    43    21    22    2
    44    21    23   am
    45    23    24    1
    46    23    50    1
    47    24    29   ar
    48    24    25   ar
    49    25    26   ar
    50    25    51    1
    51    26    27   ar
    52    26    52    1
    53    27    28   ar
    54    27    53    1
    55    28    29   ar
    56    28    54    1
    57    29    55    1
    58    30    56    1
@<TRIPOS>SUBSTRUCTURE
     1 ZINC000298969660        1 TEMP              0 ****  ****    0 ROOT


##########                                Name:    ZINC000338927927
##########                DOCK_Rotatable_Bonds:                   9
##########                         Heavy_Atoms:                  23
##########                    Molecular_Weight:             336.286
##########                DOCK_Rotatable_Bonds:                   9
##########                       Formal_Charge:         -0.00999999
##########                     HBond_Acceptors:                   9
##########                        HBond_Donors:                   2
##########                         Heavy_Atoms:                  23
##########                          Grid_Score:          -29.717634
##########                     Grid_vdw_energy:          -26.194239
##########                      Grid_es_energy:           -3.523396
##########           Internal_energy_repulsive:            9.668766

@<TRIPOS>MOLECULE
ZINC000338927927
 39 39 1 0 0
SMALL
USER_CHARGES


@<TRIPOS>ATOM
      1 C1         -5.1127    1.9903   66.1905 C.3     1  <0>        -0.1600
      2 C2         -6.3269    1.5365   65.3777 C.3     1  <0>        -0.1100
      3 C3         -7.1871    0.5982   66.2264 C.3     1  <0>        -0.1000
      4 H4         -6.5746   -0.2269   66.5900 H       1  <0>         0.1400
      5 C5         -8.3153    0.0549   65.3880 C.2     1  <0>         0.5200
      6 O6         -8.9518   -0.9023   65.7747 O.2     1  <0>        -0.4700
      7 N7         -8.6168    0.6326   64.2082 N.am    1  <0>        -0.6700
      8 C8         -9.6643    0.1282   63.4296 C.ar    1  <0>         0.2200
      9 C9        -10.9167    0.7260   63.4787 C.ar    1  <0>        -0.2300
     10 C10       -11.9534    0.2275   62.7088 C.ar    1  <0>         0.1700
     11 F11       -13.1710    0.8106   62.7581 F       1  <0>        -0.1300
     12 C12       -11.7440   -0.8667   61.8883 C.ar    1  <0>        -0.2500
     13 C13       -10.4925   -1.4677   61.8361 C.ar    1  <0>         0.2600
     14 N14       -10.2817   -2.5726   61.0080 N.pl3   1  <0>        -0.7400
     15 C15        -9.5565   -2.4137   59.7450 C.3     1  <0>         0.0800
     16 C16       -10.4684   -1.7457   58.7140 C.3     1  <0>         0.4500
     17 F17       -10.3365   -0.3560   58.8057 F       1  <0>        -0.1800
     18 F18       -10.1056   -2.1649   57.4295 F       1  <0>        -0.1700
     19 F19       -11.7971   -2.1056   58.9640 F       1  <0>        -0.1800
     20 C20        -9.4505   -0.9662   62.6035 C.ar    1  <0>        -0.2000
     21 C21        -7.7531    1.3580   67.3984 C.2     1  <0>         0.4600
     22 O22        -7.1404    1.4086   68.4384 O.2     1  <0>        -0.4600
     23 O23        -8.9381    1.9786   67.2867 O.3     1  <0>        -0.3500
     24 C24        -9.4215    2.6916   68.4555 C.3     1  <0>         0.0300
     25 H25        -4.5237    1.1202   66.4803 H       1  <0>         0.0600
     26 H26        -4.4999    2.6589   65.5858 H       1  <0>         0.0600
     27 H27        -5.4495    2.5152   67.0845 H       1  <0>         0.0800
     28 H28        -6.9158    2.4067   65.0878 H       1  <0>         0.0800
     29 H29        -5.9901    1.0116   64.4838 H       1  <0>         0.0800
     30 H30        -8.1078    1.3982   63.8990 H       1  <0>         0.4200
     31 H31       -11.0822    1.5801   64.1185 H       1  <0>         0.1400
     32 H32       -12.5542   -1.2541   61.2883 H       1  <0>         0.1400
     33 H33       -10.6154   -3.4450   61.2692 H       1  <0>         0.4100
     34 H34        -8.6757   -1.7926   59.9075 H       1  <0>         0.1100
     35 H35        -9.2482   -3.3924   59.3775 H       1  <0>         0.1100
     36 H36        -8.4770   -1.4321   62.5641 H       1  <0>         0.1500
     37 H37       -10.3864    3.1462   68.2306 H       1  <0>         0.1000
     38 H38        -9.5330    1.9946   69.2861 H       1  <0>         0.0600
     39 H39        -8.7081    3.4696   68.7274 H       1  <0>         0.0600
@<TRIPOS>BOND
     1     1     2    1
     2     1    25    1
     3     1    26    1
     4     1    27    1
     5     2     3    1
     6     2    28    1
     7     2    29    1
     8     3     4    1
     9     3     5    1
    10     3    21    1
    11     5     6    2
    12     5     7   am
    13     7     8    1
    14     7    30    1
    15     8    20   ar
    16     8     9   ar
    17     9    10   ar
    18     9    31    1
    19    10    11    1
    20    10    12   ar
    21    12    13   ar
    22    12    32    1
    23    13    14    1
    24    13    20   ar
    25    14    15    1
    26    14    33    1
    27    15    16    1
    28    15    34    1
    29    15    35    1
    30    16    17    1
    31    16    18    1
    32    16    19    1
    33    20    36    1
    34    21    22    2
    35    21    23    1
    36    23    24    1
    37    24    37    1
    38    24    38    1
    39    24    39    1
@<TRIPOS>SUBSTRUCTURE
     1 <0>         1 TEMP              0 ****  ****    0 ROOT


##########                                Name:    ZINC000451500596
##########                DOCK_Rotatable_Bonds:                   7
##########                         Heavy_Atoms:                  25
##########                    Molecular_Weight:             365.497
##########                DOCK_Rotatable_Bonds:                   7
##########                       Formal_Charge:           0.0400004
##########                     HBond_Acceptors:                   7
##########                        HBond_Donors:                   2
##########                         Heavy_Atoms:                  25
##########                          Grid_Score:          -29.706104
##########                     Grid_vdw_energy:          -29.450413
##########                      Grid_es_energy:           -0.255691
##########           Internal_energy_repulsive:           12.629049

@<TRIPOS>MOLECULE
ZINC000451500596
 52 54 1 0 0
SMALL
USER_CHARGES


@<TRIPOS>ATOM
      1 C1         -8.0142    2.3490   66.9013 C.3     1  ZINC000451500596   -0.6700
      2 S2         -8.2967    0.5575   66.8690 S.o2    1  ZINC000451500596    2.6100
      3 O3         -7.1261   -0.1242   66.4395 O.2     1  ZINC000451500596   -0.9500
      4 O4         -9.0011    0.1428   68.0314 O.2     1  ZINC000451500596   -0.9600
      5 N5         -9.3770    0.3316   65.6346 N.am    1  ZINC000451500596   -1.1200
      6 C6         -9.0268    0.7378   64.2713 C.3     1  ZINC000451500596    0.1200
      7 C7        -10.2769    1.2546   63.5561 C.3     1  ZINC000451500596   -0.1000
      8 H8        -10.0280    1.5516   62.5374 H       1  ZINC000451500596    0.0900
      9 C9        -10.8687    2.4532   64.3262 C.3     1  ZINC000451500596   -0.1200
     10 C10       -12.4011    2.2735   64.1891 C.3     1  ZINC000451500596   -0.1300
     11 C11       -12.5763    0.7383   64.2979 C.3     1  ZINC000451500596   -0.1300
     12 C12       -11.3620    0.1639   63.5370 C.3     1  ZINC000451500596    0.1400
     13 H13       -10.9982   -0.7335   64.0376 H       1  ZINC000451500596    0.1000
     14 N14       -11.7377   -0.1495   62.1561 N.am    1  ZINC000451500596   -0.7200
     15 C15       -11.1259   -1.1576   61.5036 C.2     1  ZINC000451500596    0.5300
     16 O16       -10.2633   -1.8045   62.0591 O.2     1  ZINC000451500596   -0.5300
     17 C17       -11.5134   -1.4812   60.0837 C.3     1  ZINC000451500596   -0.1300
     18 H18       -12.3819   -0.8967   59.7800 H       1  ZINC000451500596    0.1000
     19 C19       -10.3225   -1.2350   59.1204 C.3     1  ZINC000451500596   -0.1200
     20 C20       -10.6522   -2.2071   57.9603 C.3     1  ZINC000451500596    0.0500
     21 N21       -11.2292   -3.3985   58.6186 N.3     1  ZINC000451500596   -0.4900
     22 C22       -12.2113   -3.9864   57.8180 C.ar    1  ZINC000451500596    0.0800
     23 C23       -12.0370   -5.2783   57.3383 C.ar    1  ZINC000451500596   -0.0900
     24 C24       -13.0103   -5.8567   56.5474 C.ar    1  ZINC000451500596   -0.1100
     25 C25       -14.1571   -5.1511   56.2325 C.ar    1  ZINC000451500596   -0.1200
     26 C26       -14.3338   -3.8647   56.7083 C.ar    1  ZINC000451500596   -0.1100
     27 C27       -13.3671   -3.2824   57.5044 C.ar    1  ZINC000451500596   -0.1500
     28 C28       -11.7888   -2.9911   59.9237 C.3     1  ZINC000451500596    0.0600
     29 H29        -7.6087    2.6703   65.9418 H       1  ZINC000451500596    0.1300
     30 H30        -8.9577    2.8624   67.0872 H       1  ZINC000451500596    0.1300
     31 H31        -7.3065    2.5912   67.6942 H       1  ZINC000451500596    0.1300
     32 H32       -10.2417   -0.0696   65.8141 H       1  ZINC000451500596    0.4200
     33 H33        -8.2770    1.5280   64.3088 H       1  ZINC000451500596    0.0700
     34 H34        -8.6257   -0.1183   63.7288 H       1  ZINC000451500596    0.0900
     35 H35       -10.5727    2.4168   65.3746 H       1  ZINC000451500596    0.0800
     36 H36       -10.5526    3.3922   63.8719 H       1  ZINC000451500596    0.0700
     37 H37       -12.9235    2.7803   65.0005 H       1  ZINC000451500596    0.0700
     38 H38       -12.7471    2.6341   63.2205 H       1  ZINC000451500596    0.0700
     39 H39       -12.5559    0.4251   65.3417 H       1  ZINC000451500596    0.0800
     40 H40       -13.5062    0.4260   63.8229 H       1  ZINC000451500596    0.0700
     41 H41       -12.4266    0.3686   61.7114 H       1  ZINC000451500596    0.4000
     42 H42       -10.3089   -0.2021   58.7723 H       1  ZINC000451500596    0.0800
     43 H43        -9.3766   -1.4984   59.5937 H       1  ZINC000451500596    0.0800
     44 H44       -11.3792   -1.7579   57.2837 H       1  ZINC000451500596    0.0600
     45 H45        -9.7443   -2.4746   57.4197 H       1  ZINC000451500596    0.0900
     46 H46       -11.1413   -5.8298   57.5834 H       1  ZINC000451500596    0.1300
     47 H47       -12.8754   -6.8611   56.1741 H       1  ZINC000451500596    0.1300
     48 H48       -14.9162   -5.6054   55.6131 H       1  ZINC000451500596    0.1200
     49 H49       -15.2306   -3.3164   56.4605 H       1  ZINC000451500596    0.1200
     50 H50       -13.5058   -2.2779   57.8760 H       1  ZINC000451500596    0.1200
     51 H51       -11.2981   -3.5422   60.7259 H       1  ZINC000451500596    0.1000
     52 H52       -12.8619   -3.1813   59.9427 H       1  ZINC000451500596    0.0700
@<TRIPOS>BOND
     1     1     2    1
     2     1    29    1
     3     1    30    1
     4     1    31    1
     5     2     3    2
     6     2     4    2
     7     2     5   am
     8     5     6    1
     9     5    32    1
    10     6     7    1
    11     6    33    1
    12     6    34    1
    13     7     8    1
    14     7    12    1
    15     7     9    1
    16     9    10    1
    17     9    35    1
    18     9    36    1
    19    10    11    1
    20    10    37    1
    21    10    38    1
    22    11    12    1
    23    11    39    1
    24    11    40    1
    25    12    13    1
    26    12    14    1
    27    14    15   am
    28    14    41    1
    29    15    16    2
    30    15    17    1
    31    17    18    1
    32    17    28    1
    33    17    19    1
    34    19    20    1
    35    19    42    1
    36    19    43    1
    37    20    21    1
    38    20    44    1
    39    20    45    1
    40    21    22    1
    41    21    28    1
    42    22    27   ar
    43    22    23   ar
    44    23    24   ar
    45    23    46    1
    46    24    25   ar
    47    24    47    1
    48    25    26   ar
    49    25    48    1
    50    26    27   ar
    51    26    49    1
    52    27    50    1
    53    28    51    1
    54    28    52    1
@<TRIPOS>SUBSTRUCTURE
     1 ZINC000451500596        1 TEMP              0 ****  ****    0 ROOT


##########                                Name:    ZINC001173835973
##########                DOCK_Rotatable_Bonds:                   4
##########                         Heavy_Atoms:                  26
##########                    Molecular_Weight:             343.388
##########                DOCK_Rotatable_Bonds:                   4
##########                       Formal_Charge:           -0.010001
##########                     HBond_Acceptors:                   6
##########                        HBond_Donors:                   4
##########                         Heavy_Atoms:                  26
##########                          Grid_Score:          -29.702787
##########                     Grid_vdw_energy:          -29.360723
##########                      Grid_es_energy:           -0.342064
##########           Internal_energy_repulsive:            5.425638

@<TRIPOS>MOLECULE
ZINC001173835973
 43 46 1 0 0
SMALL
USER_CHARGES


@<TRIPOS>ATOM
      1 C1         -9.8352   -2.9866   60.5290 C.3     1  ZINC001173835973   -0.1700
      2 C2        -10.5742   -1.8651   59.8453 C.2     1  ZINC001173835973    0.5100
      3 O3        -11.7415   -1.6617   60.1040 O.2     1  ZINC001173835973   -0.5200
      4 N4         -9.9378   -1.0881   58.9466 N.am    1  ZINC001173835973   -0.6800
      5 C5        -10.6239   -0.0469   58.3118 C.ar    1  ZINC001173835973    0.1800
      6 C6        -10.9643    1.0967   59.0231 C.ar    1  ZINC001173835973   -0.1900
      7 C7        -11.6419    2.1259   58.3972 C.ar    1  ZINC001173835973   -0.0600
      8 C8        -11.9825    2.0216   57.0628 C.ar    1  ZINC001173835973   -0.1900
      9 C9        -11.6448    0.8799   56.3451 C.ar    1  ZINC001173835973    0.2200
     10 N10       -11.9895    0.7748   54.9961 N.pl3   1  ZINC001173835973   -0.6900
     11 C11       -11.0662    0.2655   54.0755 C.ar    1  ZINC001173835973    0.0400
     12 C12        -9.9760    1.0081   53.7292 C.ar    1  ZINC001173835973    0.2400
     13 N13        -9.7888    2.2734   54.2970 N.pl3   1  ZINC001173835973   -0.8600
     14 C14        -9.0031    0.4932   52.7717 C.ar    1  ZINC001173835973   -0.1100
     15 C15        -7.8782    1.2530   52.4116 C.ar    1  ZINC001173835973   -0.0600
     16 C16        -6.9982    0.7200   51.5090 C.ar    1  ZINC001173835973   -0.1700
     17 C17        -7.2337   -0.5420   50.9767 C.ar    1  ZINC001173835973    0.1200
     18 N18        -8.2884   -1.2463   51.3188 N.ar    1  ZINC001173835973   -0.4400
     19 C19        -9.1799   -0.7823   52.1915 C.ar    1  ZINC001173835973    0.1900
     20 C20       -10.3532   -1.5814   52.5642 C.ar    1  ZINC001173835973    0.1300
     21 N21       -10.5516   -2.7876   52.0373 N.ar    1  ZINC001173835973   -0.4400
     22 C22       -11.5972   -3.5135   52.3619 C.ar    1  ZINC001173835973    0.1000
     23 C23       -12.5453   -3.0577   53.2697 C.ar    1  ZINC001173835973   -0.1500
     24 C24       -12.3979   -1.8250   53.8465 C.ar    1  ZINC001173835973   -0.0700
     25 C25       -11.2745   -1.0581   53.4981 C.ar    1  ZINC001173835973   -0.0400
     26 C26       -10.9597   -0.1532   56.9697 C.ar    1  ZINC001173835973   -0.1900
     27 H27       -10.5083   -3.4994   61.2160 H       1  ZINC001173835973    0.1000
     28 H28        -9.4727   -3.6918   59.7812 H       1  ZINC001173835973    0.0900
     29 H29        -8.9902   -2.5795   61.0843 H       1  ZINC001173835973    0.0900
     30 H30        -9.0042   -1.2507   58.7397 H       1  ZINC001173835973    0.4100
     31 H31       -10.6994    1.1816   60.0667 H       1  ZINC001173835973    0.1200
     32 H32       -11.9059    3.0135   58.9529 H       1  ZINC001173835973    0.1200
     33 H33       -12.5120    2.8276   56.5767 H       1  ZINC001173835973    0.1200
     34 H34       -12.8687    1.0547   54.6969 H       1  ZINC001173835973    0.4000
     35 H35       -10.3876    2.5859   54.9932 H       1  ZINC001173835973    0.4100
     36 H36        -9.0603    2.8378   53.9943 H       1  ZINC001173835973    0.4000
     37 H37        -7.7121    2.2323   52.8357 H       1  ZINC001173835973    0.1400
     38 H38        -6.1233    1.2789   51.2108 H       1  ZINC001173835973    0.1400
     39 H39        -6.5333   -0.9532   50.2649 H       1  ZINC001173835973    0.1700
     40 H40       -11.7230   -4.4875   51.9123 H       1  ZINC001173835973    0.1600
     41 H41       -13.3963   -3.6740   53.5194 H       1  ZINC001173835973    0.1400
     42 H42       -13.1247   -1.4538   54.5539 H       1  ZINC001173835973    0.1400
     43 H43       -10.6958   -1.0411   56.4145 H       1  ZINC001173835973    0.1400
@<TRIPOS>BOND
     1     1     2    1
     2     1    27    1
     3     1    28    1
     4     1    29    1
     5     2     3    2
     6     2     4   am
     7     4     5    1
     8     4    30    1
     9     5    26   ar
    10     5     6   ar
    11     6     7   ar
    12     6    31    1
    13     7     8   ar
    14     7    32    1
    15     8     9   ar
    16     8    33    1
    17     9    10    1
    18     9    26   ar
    19    10    11    1
    20    10    34    1
    21    11    25   ar
    22    11    12   ar
    23    12    13    1
    24    12    14   ar
    25    13    35    1
    26    13    36    1
    27    14    19   ar
    28    14    15   ar
    29    15    16   ar
    30    15    37    1
    31    16    17   ar
    32    16    38    1
    33    17    18   ar
    34    17    39    1
    35    18    19   ar
    36    19    20   ar
    37    20    25   ar
    38    20    21   ar
    39    21    22   ar
    40    22    23   ar
    41    22    40    1
    42    23    24   ar
    43    23    41    1
    44    24    25   ar
    45    24    42    1
    46    26    43    1
@<TRIPOS>SUBSTRUCTURE
     1 ZINC001173835973        1 TEMP              0 ****  ****    0 ROOT


##########                                Name:    ZINC000477669194
##########                DOCK_Rotatable_Bonds:                   6
##########                         Heavy_Atoms:                  26
##########                    Molecular_Weight:             387.483
##########                DOCK_Rotatable_Bonds:                   6
##########                       Formal_Charge:         4.47035e-07
##########                     HBond_Acceptors:                   8
##########                        HBond_Donors:                   2
##########                         Heavy_Atoms:                  26
##########                          Grid_Score:          -29.694702
##########                     Grid_vdw_energy:          -27.963234
##########                      Grid_es_energy:           -1.731469
##########           Internal_energy_repulsive:            8.428741

@<TRIPOS>MOLECULE
ZINC000477669194
 43 45 1 0 0
SMALL
USER_CHARGES


@<TRIPOS>ATOM
      1 C1        -15.0614   -3.5928   58.9695 C.3     1  ZINC000477669194   -0.0800
      2 C2        -14.4828   -4.1138   57.6792 C.2     1  ZINC000477669194    0.0500
      3 N3        -13.9091   -3.3858   56.7847 N.2     1  ZINC000477669194   -0.4900
      4 C4        -13.4527   -4.0034   55.7047 C.2     1  ZINC000477669194    0.1200
      5 C5        -12.7712   -3.2924   54.5959 C.ar    1  ZINC000477669194   -0.0600
      6 C6        -13.1683   -3.5071   53.2787 C.ar    1  ZINC000477669194   -0.0800
      7 C7        -12.5307   -2.8428   52.2497 C.ar    1  ZINC000477669194   -0.1400
      8 C8        -11.4978   -1.9635   52.5215 C.ar    1  ZINC000477669194   -0.0900
      9 C9        -11.0945   -1.7424   53.8250 C.ar    1  ZINC000477669194   -0.1300
     10 C10       -11.7297   -2.3978   54.8690 C.ar    1  ZINC000477669194    0.1800
     11 N11       -11.3237   -2.1752   56.1877 N.am    1  ZINC000477669194   -0.6500
     12 C12       -11.5851   -0.9947   56.7831 C.2     1  ZINC000477669194    0.5600
     13 O13       -12.1745   -0.1233   56.1730 O.2     1  ZINC000477669194   -0.5200
     14 C14       -11.1567   -0.7597   58.1747 C.ar    1  ZINC000477669194   -0.1500
     15 C15       -11.2585   -1.7836   59.1213 C.ar    1  ZINC000477669194   -0.0600
     16 C16       -10.8574   -1.5614   60.4188 C.ar    1  ZINC000477669194   -0.1400
     17 C17       -10.3507   -0.3187   60.7892 C.ar    1  ZINC000477669194    0.1700
     18 N18        -9.9463   -0.0974   62.1011 N.am    1  ZINC000477669194   -1.0600
     19 S19       -11.0467    0.4016   63.2336 S.o2    1  ZINC000477669194    2.6100
     20 C20       -11.6712    1.9798   62.5934 C.3     1  ZINC000477669194   -0.6700
     21 O21       -12.0639   -0.5899   63.1946 O.2     1  ZINC000477669194   -0.9400
     22 O22       -10.2721    0.6106   64.4065 O.2     1  ZINC000477669194   -0.9500
     23 C23       -10.2476    0.7027   59.8488 C.ar    1  ZINC000477669194   -0.1600
     24 C24       -10.6424    0.4853   58.5486 C.ar    1  ZINC000477669194   -0.0300
     25 C25       -13.6621   -5.3356   55.7031 C.2     1  ZINC000477669194   -0.2600
     26 S26       -14.4893   -5.7547   57.2011 S.3     1  ZINC000477669194    0.1500
     27 H27       -15.4798   -4.4213   59.5408 H       1  ZINC000477669194    0.0800
     28 H28       -14.2760   -3.1102   59.5511 H       1  ZINC000477669194    0.0900
     29 H29       -15.8470   -2.8698   58.7495 H       1  ZINC000477669194    0.0900
     30 H30       -13.9739   -4.1930   53.0620 H       1  ZINC000477669194    0.1300
     31 H31       -12.8394   -3.0105   51.2284 H       1  ZINC000477669194    0.1300
     32 H32       -11.0040   -1.4475   51.7114 H       1  ZINC000477669194    0.1300
     33 H33       -10.2871   -1.0553   54.0309 H       1  ZINC000477669194    0.1500
     34 H34       -10.8536   -2.8702   56.6743 H       1  ZINC000477669194    0.4200
     35 H35       -11.6518   -2.7477   58.8347 H       1  ZINC000477669194    0.1300
     36 H36       -10.9362   -2.3516   61.1506 H       1  ZINC000477669194    0.1400
     37 H37        -9.0198   -0.2352   62.3528 H       1  ZINC000477669194    0.4300
     38 H38       -12.2117    1.8061   61.6630 H       1  ZINC000477669194    0.1300
     39 H39       -12.3427    2.4286   63.3254 H       1  ZINC000477669194    0.1400
     40 H40       -10.8343    2.6530   62.4073 H       1  ZINC000477669194    0.1300
     41 H41        -9.8537    1.6655   60.1391 H       1  ZINC000477669194    0.1700
     42 H42       -10.5618    1.2780   57.8196 H       1  ZINC000477669194    0.1500
     43 H43       -13.3709   -6.0240   54.9236 H       1  ZINC000477669194    0.1800
@<TRIPOS>BOND
     1     1     2    1
     2     1    27    1
     3     1    28    1
     4     1    29    1
     5     2    26    1
     6     2     3    2
     7     3     4    1
     8     4     5    1
     9     4    25    2
    10     5    10   ar
    11     5     6   ar
    12     6     7   ar
    13     6    30    1
    14     7     8   ar
    15     7    31    1
    16     8     9   ar
    17     8    32    1
    18     9    10   ar
    19     9    33    1
    20    10    11    1
    21    11    12   am
    22    11    34    1
    23    12    13    2
    24    12    14    1
    25    14    24   ar
    26    14    15   ar
    27    15    16   ar
    28    15    35    1
    29    16    17   ar
    30    16    36    1
    31    17    18    1
    32    17    23   ar
    33    18    19   am
    34    18    37    1
    35    19    20    1
    36    19    21    2
    37    19    22    2
    38    20    38    1
    39    20    39    1
    40    20    40    1
    41    23    24   ar
    42    23    41    1
    43    24    42    1
    44    25    26    1
    45    25    43    1
@<TRIPOS>SUBSTRUCTURE
     1 ZINC000477669194        1 TEMP              0 ****  ****    0 ROOT


##########                                Name:    ZINC000302023461
##########                DOCK_Rotatable_Bonds:                   3
##########                         Heavy_Atoms:                  25
##########                    Molecular_Weight:             356.362
##########                DOCK_Rotatable_Bonds:                   3
##########                       Formal_Charge:        -2.08616e-07
##########                     HBond_Acceptors:                   9
##########                        HBond_Donors:                   1
##########                         Heavy_Atoms:                  25
##########                          Grid_Score:          -29.659573
##########                     Grid_vdw_energy:          -28.023283
##########                      Grid_es_energy:           -1.636289
##########           Internal_energy_repulsive:           21.493820

@<TRIPOS>MOLECULE
ZINC000302023461
 37 40 1 0 0
SMALL
USER_CHARGES


@<TRIPOS>ATOM
      1 O1        -14.2511    1.9880   62.0619 O.2     1  ZINC000302023461   -0.1600
      2 N2        -14.1101    0.7813   61.9733 N.pl3   1  ZINC000302023461    0.0200
      3 O3        -14.9927    0.0352   62.3577 O.2     1  ZINC000302023461   -0.1300
      4 C4        -12.8685    0.2220   61.3928 C.ar    1  ZINC000302023461    0.0000
      5 C5        -11.8676    1.0669   60.9567 C.ar    1  ZINC000302023461   -0.0600
      6 C6        -10.7071    0.5451   60.4142 C.ar    1  ZINC000302023461   -0.0900
      7 C7        -10.5449   -0.8240   60.3068 C.ar    1  ZINC000302023461   -0.0800
      8 C8        -11.5420   -1.6753   60.7409 C.ar    1  ZINC000302023461   -0.0500
      9 C9        -12.7068   -1.1548   61.2913 C.ar    1  ZINC000302023461   -0.1100
     10 S10       -13.9813   -2.2370   61.8470 S.3     1  ZINC000302023461    0.1900
     11 C11       -14.4009   -3.1359   60.3909 C.2     1  ZINC000302023461    0.2100
     12 N12       -15.4451   -3.9204   60.2537 N.2     1  ZINC000302023461   -0.3200
     13 N13       -15.4022   -4.4347   58.9477 N.pl3   1  ZINC000302023461   -0.4700
     14 C14       -14.3001   -3.9092   58.3667 C.2     1  ZINC000302023461    0.3500
     15 C15       -13.8401   -4.1636   56.9845 C.ar    1  ZINC000302023461   -0.0400
     16 C16       -14.4267   -5.1782   56.2275 C.ar    1  ZINC000302023461   -0.0900
     17 C17       -13.9946   -5.4145   54.9395 C.ar    1  ZINC000302023461   -0.1100
     18 C18       -12.9763   -4.6462   54.3911 C.ar    1  ZINC000302023461    0.0800
     19 O19       -12.5600   -4.9026   53.1212 O.3     1  ZINC000302023461   -0.3000
     20 C20       -11.7991   -3.8775   52.4734 C.3     1  ZINC000302023461    0.0200
     21 C21       -10.7305   -3.3786   53.4552 C.3     1  ZINC000302023461    0.0200
     22 O22       -11.3931   -2.8649   54.6157 O.3     1  ZINC000302023461   -0.3000
     23 C23       -12.3893   -3.6303   55.1401 C.ar    1  ZINC000302023461    0.0500
     24 C24       -12.8219   -3.3858   56.4316 C.ar    1  ZINC000302023461   -0.0500
     25 N25       -13.7118   -3.1247   59.2479 N.2     1  ZINC000302023461   -0.5000
     26 H26       -11.9910    2.1367   61.0391 H       1  ZINC000302023461    0.1600
     27 H27        -9.9260    1.2084   60.0732 H       1  ZINC000302023461    0.1500
     28 H28        -9.6376   -1.2280   59.8827 H       1  ZINC000302023461    0.1500
     29 H29       -11.4149   -2.7445   60.6561 H       1  ZINC000302023461    0.1600
     30 H30       -16.0372   -5.0461   58.5428 H       1  ZINC000302023461    0.4400
     31 H31       -15.2187   -5.7786   56.6504 H       1  ZINC000302023461    0.1300
     32 H32       -14.4499   -6.2005   54.3551 H       1  ZINC000302023461    0.1500
     33 H33       -11.3193   -4.2832   51.5827 H       1  ZINC000302023461    0.1300
     34 H34       -12.4556   -3.0532   52.1945 H       1  ZINC000302023461    0.0800
     35 H35       -10.0783   -4.2044   53.7396 H       1  ZINC000302023461    0.0800
     36 H36       -10.1420   -2.5889   52.9880 H       1  ZINC000302023461    0.1300
     37 H37       -12.3689   -2.5963   57.0128 H       1  ZINC000302023461    0.1600
@<TRIPOS>BOND
     1     1     2    2
     2     2     3    2
     3     2     4    1
     4     4     9   ar
     5     4     5   ar
     6     5     6   ar
     7     5    26    1
     8     6     7   ar
     9     6    27    1
    10     7     8   ar
    11     7    28    1
    12     8     9   ar
    13     8    29    1
    14     9    10    1
    15    10    11    1
    16    11    25    1
    17    11    12    2
    18    12    13    1
    19    13    14    1
    20    13    30    1
    21    14    15    1
    22    14    25    2
    23    15    24   ar
    24    15    16   ar
    25    16    17   ar
    26    16    31    1
    27    17    18   ar
    28    17    32    1
    29    18    23   ar
    30    18    19    1
    31    19    20    1
    32    20    21    1
    33    20    33    1
    34    20    34    1
    35    21    22    1
    36    21    35    1
    37    21    36    1
    38    22    23    1
    39    23    24   ar
    40    24    37    1
@<TRIPOS>SUBSTRUCTURE
     1 ZINC000302023461        1 TEMP              0 ****  ****    0 ROOT


##########                                Name:    ZINC000154446008
##########                DOCK_Rotatable_Bonds:                   5
##########                         Heavy_Atoms:                  24
##########                    Molecular_Weight:              349.41
##########                DOCK_Rotatable_Bonds:                   5
##########                       Formal_Charge:          -0.0199999
##########                     HBond_Acceptors:                   8
##########                        HBond_Donors:                   0
##########                         Heavy_Atoms:                  24
##########                          Grid_Score:          -29.634356
##########                     Grid_vdw_energy:          -29.763184
##########                      Grid_es_energy:            0.128828
##########           Internal_energy_repulsive:           14.976779

@<TRIPOS>MOLECULE
ZINC000154446008
 43 45 1 0 0
SMALL
USER_CHARGES


@<TRIPOS>ATOM
      1 O1        -10.2270   -5.4804   57.9684 O.2     1  ZINC000154446008   -0.5000
      2 C2        -11.0565   -4.5940   58.0544 C.2     1  ZINC000154446008    0.5900
      3 C3        -12.0701   -4.4347   57.0075 C.2     1  ZINC000154446008   -0.2300
      4 C4        -13.3947   -4.7463   57.1326 C.2     1  ZINC000154446008   -0.0600
      5 C5        -14.1220   -4.4962   55.9932 C.2     1  ZINC000154446008   -0.0500
      6 C6        -13.4195   -3.9972   54.9694 C.2     1  ZINC000154446008   -0.2100
      7 N7        -13.9916   -3.6523   53.6484 N.pl3   1  ZINC000154446008    0.0500
      8 O8        -13.2874   -3.1459   52.7933 O.2     1  ZINC000154446008   -0.1300
      9 O9        -15.1664   -3.8749   53.4166 O.2     1  ZINC000154446008   -0.1500
     10 S10       -11.7778   -3.8047   55.3922 S.3     1  ZINC000154446008    0.3500
     11 N11       -11.0466   -3.7624   59.1150 N.am    1  ZINC000154446008   -0.6100
     12 C12       -10.0325   -3.9066   60.1689 C.3     1  ZINC000154446008    0.0800
     13 C13        -9.3043   -2.5671   60.3349 C.3     1  ZINC000154446008    0.0900
     14 N14       -10.3069   -1.4996   60.4578 N.am    1  ZINC000154446008   -0.6100
     15 C15       -10.2963   -0.6674   61.5180 C.2     1  ZINC000154446008    0.5500
     16 O16        -9.4518   -0.7962   62.3837 O.2     1  ZINC000154446008   -0.5300
     17 C17       -11.3060    0.3967   61.6279 C.2     1  ZINC000154446008   -0.1500
     18 C18       -11.2082    1.4296   60.8192 C.2     1  ZINC000154446008   -0.1100
     19 C19       -12.1610    2.5893   60.8273 C.3     1  ZINC000154446008   -0.1000
     20 C20       -13.4461    2.2100   61.5663 C.3     1  ZINC000154446008   -0.1200
     21 C21       -13.0662    1.5877   62.9155 C.3     1  ZINC000154446008   -0.1200
     22 C22       -12.3917    0.2382   62.6520 C.3     1  ZINC000154446008   -0.0700
     23 C23       -11.3209   -1.3554   59.4039 C.3     1  ZINC000154446008    0.1000
     24 C24       -12.0457   -2.6913   59.2351 C.3     1  ZINC000154446008    0.1000
     25 H25       -13.8271   -5.1490   58.0366 H       1  ZINC000154446008    0.1800
     26 H26       -15.1828   -4.6889   55.9289 H       1  ZINC000154446008    0.1800
     27 H27       -10.5162   -4.1787   61.1071 H       1  ZINC000154446008    0.0900
     28 H28        -9.3176   -4.6790   59.8855 H       1  ZINC000154446008    0.0900
     29 H29        -8.6874   -2.5948   61.2331 H       1  ZINC000154446008    0.1100
     30 H30        -8.6771   -2.3812   59.4630 H       1  ZINC000154446008    0.0800
     31 H31       -10.3951    1.4443   60.1086 H       1  ZINC000154446008    0.1100
     32 H32       -11.6937    3.4375   61.3274 H       1  ZINC000154446008    0.0900
     33 H33       -12.4027    2.8657   59.8009 H       1  ZINC000154446008    0.0800
     34 H34       -14.0504    3.1019   61.7315 H       1  ZINC000154446008    0.0700
     35 H35       -14.0088    1.4874   60.9751 H       1  ZINC000154446008    0.0700
     36 H36       -12.3777    2.2481   63.4425 H       1  ZINC000154446008    0.0700
     37 H37       -13.9640    1.4365   63.5148 H       1  ZINC000154446008    0.0700
     38 H38       -13.1349   -0.4730   62.2917 H       1  ZINC000154446008    0.0800
     39 H39       -11.9567   -0.1355   63.5790 H       1  ZINC000154446008    0.0700
     40 H40       -12.0358   -0.5830   59.6873 H       1  ZINC000154446008    0.1100
     41 H41       -10.8373   -1.0832   58.4657 H       1  ZINC000154446008    0.0800
     42 H42       -12.6621   -2.6622   58.3367 H       1  ZINC000154446008    0.1100
     43 H43       -12.6732   -2.8798   60.1062 H       1  ZINC000154446008    0.0800
@<TRIPOS>BOND
     1     1     2    2
     2     2     3    1
     3     2    11   am
     4     3    10    1
     5     3     4    2
     6     4     5    1
     7     4    25    1
     8     5     6    2
     9     5    26    1
    10     6     7    1
    11     6    10    1
    12     7     8    2
    13     7     9    2
    14    11    24    1
    15    11    12    1
    16    12    13    1
    17    12    27    1
    18    12    28    1
    19    13    14    1
    20    13    29    1
    21    13    30    1
    22    14    15   am
    23    14    23    1
    24    15    16    2
    25    15    17    1
    26    17    22    1
    27    17    18    2
    28    18    19    1
    29    18    31    1
    30    19    20    1
    31    19    32    1
    32    19    33    1
    33    20    21    1
    34    20    34    1
    35    20    35    1
    36    21    22    1
    37    21    36    1
    38    21    37    1
    39    22    38    1
    40    22    39    1
    41    23    24    1
    42    23    40    1
    43    23    41    1
    44    24    42    1
    45    24    43    1
@<TRIPOS>SUBSTRUCTURE
     1 ZINC000154446008        1 TEMP              0 ****  ****    0 ROOT


##########                                Name:    ZINC000119180466
##########                DOCK_Rotatable_Bonds:                  10
##########                         Heavy_Atoms:                  23
##########                    Molecular_Weight:             350.405
##########                DOCK_Rotatable_Bonds:                  10
##########                       Formal_Charge:           0.0299997
##########                     HBond_Acceptors:                   8
##########                        HBond_Donors:                   3
##########                         Heavy_Atoms:                  23
##########                          Grid_Score:          -29.630129
##########                     Grid_vdw_energy:          -27.992733
##########                      Grid_es_energy:           -1.637395
##########           Internal_energy_repulsive:           11.219316

@<TRIPOS>MOLECULE
ZINC000119180466
 44 44 1 0 0
SMALL
USER_CHARGES


@<TRIPOS>ATOM
      1 C1        -10.3911    0.3219   62.2404 C.3     1  ZINC000119180466   -0.1300
      2 S2        -10.8447   -1.2687   61.4956 S.3     1  ZINC000119180466   -0.2200
      3 C3         -9.7326   -1.3821   60.0669 C.3     1  ZINC000119180466   -0.0700
      4 H4         -8.6996   -1.2901   60.4023 H       1  ZINC000119180466    0.1100
      5 C5        -10.0512   -0.2557   59.0819 C.3     1  ZINC000119180466    0.0800
      6 O6         -9.1483   -0.3203   57.9761 O.3     1  ZINC000119180466   -0.5600
      7 C7         -9.9260   -2.7336   59.3762 C.3     1  ZINC000119180466    0.1900
      8 H8         -9.3832   -2.7394   58.4309 H       1  ZINC000119180466    0.1000
      9 C9         -9.3916   -3.8482   60.2778 C.3     1  ZINC000119180466   -0.1700
     10 N10       -11.3519   -2.9524   59.1220 N.am    1  ZINC000119180466   -0.7200
     11 C11       -11.7433   -3.6636   58.0460 C.2     1  ZINC000119180466    0.7100
     12 O12       -10.9127   -4.1249   57.2873 O.2     1  ZINC000119180466   -0.6000
     13 N13       -13.0553   -3.8636   57.8113 N.am    1  ZINC000119180466   -0.7400
     14 C14       -13.4806   -4.6382   56.6427 C.3     1  ZINC000119180466    0.2000
     15 H15       -12.8196   -5.4954   56.5148 H       1  ZINC000119180466    0.1000
     16 C16       -14.9156   -5.1272   56.8498 C.3     1  ZINC000119180466   -0.1600
     17 C17       -13.4187   -3.7682   55.4138 C.ar    1  ZINC000119180466   -0.0600
     18 C18       -13.8688   -2.4622   55.4681 C.ar    1  ZINC000119180466   -0.1100
     19 C19       -13.8120   -1.6643   54.3407 C.ar    1  ZINC000119180466   -0.0600
     20 C20       -13.3048   -2.1721   53.1593 C.ar    1  ZINC000119180466   -0.1800
     21 C21       -13.2435   -1.3024   51.9302 C.3     1  ZINC000119180466    0.5100
     22 F22       -14.2572   -1.6780   51.0421 F       1  ZINC000119180466   -0.1800
     23 F23       -13.4174    0.0364   52.2969 F       1  ZINC000119180466   -0.1800
     24 F24       -11.9990   -1.4582   51.3102 F       1  ZINC000119180466   -0.1800
     25 C25       -12.8536   -3.4775   53.1054 C.ar    1  ZINC000119180466   -0.0600
     26 C26       -12.9068   -4.2744   54.2337 C.ar    1  ZINC000119180466   -0.1100
     27 H27       -10.5546    1.1213   61.5177 H       1  ZINC000119180466    0.0800
     28 H28       -11.0062    0.4984   63.1229 H       1  ZINC000119180466    0.1000
     29 H29        -9.3399    0.3018   62.5283 H       1  ZINC000119180466    0.0800
     30 H30       -11.0743   -0.3660   58.7224 H       1  ZINC000119180466    0.0500
     31 H31        -9.9439    0.7063   59.5829 H       1  ZINC000119180466    0.0600
     32 H32        -9.3087    0.3499   57.2978 H       1  ZINC000119180466    0.3800
     33 H33        -9.9343   -3.8424   61.2232 H       1  ZINC000119180466    0.0700
     34 H34        -9.5294   -4.8110   59.7857 H       1  ZINC000119180466    0.0700
     35 H35        -8.3306   -3.6855   60.4670 H       1  ZINC000119180466    0.0700
     36 H36       -12.0146   -2.5856   59.7279 H       1  ZINC000119180466    0.4100
     37 H37       -13.7180   -3.4947   58.4159 H       1  ZINC000119180466    0.4000
     38 H38       -15.2320   -5.7034   55.9805 H       1  ZINC000119180466    0.0700
     39 H39       -14.9602   -5.7564   57.7388 H       1  ZINC000119180466    0.0700
     40 H40       -15.5766   -4.2700   56.9778 H       1  ZINC000119180466    0.0600
     41 H41       -14.2650   -2.0656   56.3911 H       1  ZINC000119180466    0.1300
     42 H42       -14.1643   -0.6442   54.3830 H       1  ZINC000119180466    0.1400
     43 H43       -12.4571   -3.8742   52.1824 H       1  ZINC000119180466    0.1400
     44 H44       -12.5543   -5.2944   54.1917 H       1  ZINC000119180466    0.1400
@<TRIPOS>BOND
     1     1     2    1
     2     1    27    1
     3     1    28    1
     4     1    29    1
     5     2     3    1
     6     3     4    1
     7     3     5    1
     8     3     7    1
     9     5     6    1
    10     5    30    1
    11     5    31    1
    12     6    32    1
    13     7     8    1
    14     7     9    1
    15     7    10    1
    16     9    33    1
    17     9    34    1
    18     9    35    1
    19    10    11   am
    20    10    36    1
    21    11    12    2
    22    11    13   am
    23    13    14    1
    24    13    37    1
    25    14    15    1
    26    14    16    1
    27    14    17    1
    28    16    38    1
    29    16    39    1
    30    16    40    1
    31    17    26   ar
    32    17    18   ar
    33    18    19   ar
    34    18    41    1
    35    19    20   ar
    36    19    42    1
    37    20    21    1
    38    20    25   ar
    39    21    22    1
    40    21    23    1
    41    21    24    1
    42    25    26   ar
    43    25    43    1
    44    26    44    1
@<TRIPOS>SUBSTRUCTURE
     1 ZINC000119180466        1 TEMP              0 ****  ****    0 ROOT


##########                                Name:    ZINC000618094467
##########                DOCK_Rotatable_Bonds:                   5
##########                         Heavy_Atoms:                  27
##########                    Molecular_Weight:             370.492
##########                DOCK_Rotatable_Bonds:                   5
##########                       Formal_Charge:                0.03
##########                     HBond_Acceptors:                   5
##########                        HBond_Donors:                   0
##########                         Heavy_Atoms:                  27
##########                          Grid_Score:          -29.589439
##########                     Grid_vdw_energy:          -28.871319
##########                      Grid_es_energy:           -0.718120
##########           Internal_energy_repulsive:          107.073074

@<TRIPOS>MOLECULE
ZINC000618094467
 57 59 1 0 0
SMALL
USER_CHARGES


@<TRIPOS>ATOM
      1 C1        -17.0506   -1.1902   59.5296 C.3     1  ZINC000618094467   -0.1500
      2 C2        -15.6667   -1.3569   58.8988 C.3     1  ZINC000618094467   -0.1000
      3 C3        -15.0007   -2.6167   59.4557 C.3     1  ZINC000618094467   -0.1100
      4 H4        -14.9010   -2.5271   60.5375 H       1  ZINC000618094467    0.1000
      5 C5        -15.8601   -3.8379   59.1223 C.3     1  ZINC000618094467   -0.1500
      6 C6        -13.6361   -2.7789   58.8372 C.2     1  ZINC000618094467    0.5200
      7 O7        -13.4499   -3.6303   57.9938 O.2     1  ZINC000618094467   -0.5000
      8 N8        -12.6226   -1.9777   59.2211 N.am    1  ZINC000618094467   -0.6100
      9 C9        -12.8152   -0.9385   60.2382 C.3     1  ZINC000618094467    0.1400
     10 C10       -11.6628   -0.9600   61.2107 C.ar    1  ZINC000618094467   -0.1000
     11 C11       -11.7855   -0.2173   62.3767 C.ar    1  ZINC000618094467   -0.1100
     12 C12       -10.7607   -0.1891   63.3005 C.ar    1  ZINC000618094467   -0.1200
     13 C13        -9.6028   -0.9051   63.0615 C.ar    1  ZINC000618094467   -0.1100
     14 C14        -9.4814   -1.6470   61.9048 C.ar    1  ZINC000618094467   -0.1200
     15 C15       -10.5140   -1.6821   60.9758 C.ar    1  ZINC000618094467   -0.0600
     16 C16       -10.3215   -2.5352   59.7498 C.3     1  ZINC000618094467   -0.0800
     17 C17       -11.2765   -2.1146   58.6409 C.3     1  ZINC000618094467    0.1200
     18 H18       -10.9603   -1.1579   58.2251 H       1  ZINC000618094467    0.1000
     19 C19       -11.2915   -3.1614   57.5569 C.2     1  ZINC000618094467    0.5500
     20 O20       -11.2314   -4.3372   57.8484 O.2     1  ZINC000618094467   -0.5200
     21 N21       -11.3717   -2.7910   56.2635 N.am    1  ZINC000618094467   -0.6100
     22 C22       -11.3930   -3.8042   55.2006 C.3     1  ZINC000618094467    0.1200
     23 C23       -12.6714   -3.6238   54.3721 C.3     1  ZINC000618094467   -0.1600
     24 H24       -12.6137   -4.2342   53.4708 H       1  ZINC000618094467    0.1100
     25 C25       -13.8864   -4.0437   55.2017 C.3     1  ZINC000618094467   -0.1400
     26 C26       -12.7928   -2.1644   53.9921 C.2     1  ZINC000618094467    0.3700
     27 O27       -12.9461   -1.8360   52.8401 O.2     1  ZINC000618094467   -0.4400
     28 C28       -12.7182   -1.1265   55.0902 C.3     1  ZINC000618094467   -0.1600
     29 H29       -13.5877   -1.2176   55.7411 H       1  ZINC000618094467    0.1100
     30 C30       -12.6804    0.2735   54.4742 C.3     1  ZINC000618094467   -0.1400
     31 C31       -11.4448   -1.3697   55.9010 C.3     1  ZINC000618094467    0.1400
     32 H32       -16.9483   -1.0994   60.6111 H       1  ZINC000618094467    0.0500
     33 H33       -17.5250   -0.2927   59.1328 H       1  ZINC000618094467    0.0600
     34 H34       -17.6642   -2.0599   59.2945 H       1  ZINC000618094467    0.0600
     35 H35       -15.7689   -1.4478   57.8174 H       1  ZINC000618094467    0.0700
     36 H36       -15.0531   -0.4873   59.1340 H       1  ZINC000618094467    0.0700
     37 H37       -16.0747   -3.8503   58.0537 H       1  ZINC000618094467    0.0700
     38 H38       -15.3226   -4.7459   59.3955 H       1  ZINC000618094467    0.0700
     39 H39       -16.7951   -3.7874   59.6802 H       1  ZINC000618094467    0.0700
     40 H40       -12.8638    0.0374   59.7550 H       1  ZINC000618094467    0.0900
     41 H41       -13.7459   -1.1238   60.7745 H       1  ZINC000618094467    0.1100
     42 H42       -12.6899    0.3434   62.5624 H       1  ZINC000618094467    0.1300
     43 H43       -10.8627    0.3903   64.2062 H       1  ZINC000618094467    0.1300
     44 H44        -8.7953   -0.8838   63.7783 H       1  ZINC000618094467    0.1200
     45 H45        -8.5755   -2.2051   61.7194 H       1  ZINC000618094467    0.1200
     46 H46        -9.2947   -2.4320   59.3988 H       1  ZINC000618094467    0.0900
     47 H47       -10.5090   -3.5780   60.0057 H       1  ZINC000618094467    0.1000
     48 H48       -10.5210   -3.6791   54.5589 H       1  ZINC000618094467    0.0700
     49 H49       -11.3828   -4.7997   55.6445 H       1  ZINC000618094467    0.0900
     50 H50       -13.9960   -3.3706   56.0520 H       1  ZINC000618094467    0.0600
     51 H51       -14.7826   -3.9964   54.5830 H       1  ZINC000618094467    0.0600
     52 H52       -13.7464   -5.0632   55.5610 H       1  ZINC000618094467    0.0700
     53 H53       -13.5828    0.4354   53.8845 H       1  ZINC000618094467    0.0700
     54 H54       -12.6266    1.0185   55.2681 H       1  ZINC000618094467    0.0700
     55 H55       -11.8051    0.3640   53.8311 H       1  ZINC000618094467    0.0600
     56 H56       -11.4659   -0.7618   56.8055 H       1  ZINC000618094467    0.1100
     57 H57       -10.5737   -1.1061   55.3013 H       1  ZINC000618094467    0.0700
@<TRIPOS>BOND
     1     1     2    1
     2     1    32    1
     3     1    33    1
     4     1    34    1
     5     2     3    1
     6     2    35    1
     7     2    36    1
     8     3     4    1
     9     3     5    1
    10     3     6    1
    11     5    37    1
    12     5    38    1
    13     5    39    1
    14     6     7    2
    15     6     8   am
    16     8    17    1
    17     8     9    1
    18     9    10    1
    19     9    40    1
    20     9    41    1
    21    10    15   ar
    22    10    11   ar
    23    11    12   ar
    24    11    42    1
    25    12    13   ar
    26    12    43    1
    27    13    14   ar
    28    13    44    1
    29    14    15   ar
    30    14    45    1
    31    15    16    1
    32    16    17    1
    33    16    46    1
    34    16    47    1
    35    17    18    1
    36    17    19    1
    37    19    20    2
    38    19    21   am
    39    21    31    1
    40    21    22    1
    41    22    23    1
    42    22    48    1
    43    22    49    1
    44    23    24    1
    45    23    25    1
    46    23    26    1
    47    25    50    1
    48    25    51    1
    49    25    52    1
    50    26    27    2
    51    26    28    1
    52    28    29    1
    53    28    30    1
    54    28    31    1
    55    30    53    1
    56    30    54    1
    57    30    55    1
    58    31    56    1
    59    31    57    1
@<TRIPOS>SUBSTRUCTURE
     1 ZINC000618094467        1 TEMP              0 ****  ****    0 ROOT


##########                                Name:    ZINC000560467340
##########                DOCK_Rotatable_Bonds:                   7
##########                         Heavy_Atoms:                  24
##########                    Molecular_Weight:             369.481
##########                DOCK_Rotatable_Bonds:                   7
##########                       Formal_Charge:          -0.0199997
##########                     HBond_Acceptors:                   7
##########                        HBond_Donors:                   2
##########                         Heavy_Atoms:                  24
##########                          Grid_Score:          -29.586281
##########                     Grid_vdw_energy:          -30.385012
##########                      Grid_es_energy:            0.798730
##########           Internal_energy_repulsive:           22.883541

@<TRIPOS>MOLECULE
ZINC000560467340
 44 46 1 0 0
SMALL
USER_CHARGES


@<TRIPOS>ATOM
      1 O1        -12.4097   -2.0644   52.8916 O.2     1  ZINC000560467340   -0.9600
      2 S2        -11.7769   -0.9961   53.5828 S.o2    1  ZINC000560467340    2.7100
      3 O3        -12.3875    0.2716   53.7804 O.2     1  ZINC000560467340   -0.9500
      4 N4        -11.3982   -1.5726   55.0884 N.am    1  ZINC000560467340   -1.0900
      5 C5        -12.4657   -1.9204   56.0294 C.3     1  ZINC000560467340    0.1400
      6 C6        -12.4225   -3.4225   56.3173 C.3     1  ZINC000560467340   -0.0500
      7 C7        -10.9935   -3.8495   56.6581 C.3     1  ZINC000560467340   -0.0700
      8 C8        -10.5670   -3.1938   57.9463 C.ar    1  ZINC000560467340   -0.0900
      9 C9        -10.0872   -1.8974   57.9356 C.ar    1  ZINC000560467340   -0.0900
     10 C10        -9.6958   -1.2950   59.1162 C.ar    1  ZINC000560467340   -0.1500
     11 C11        -9.7848   -1.9905   60.3102 C.ar    1  ZINC000560467340    0.1000
     12 F12        -9.4029   -1.4025   61.4650 F       1  ZINC000560467340   -0.1400
     13 C13       -10.2659   -3.2887   60.3198 C.ar    1  ZINC000560467340   -0.1500
     14 C14       -10.6612   -3.8873   59.1385 C.ar    1  ZINC000560467340   -0.0900
     15 C15       -12.9327   -4.2100   55.0929 C.3     1  ZINC000560467340   -0.1300
     16 C16       -13.7220   -5.3940   55.7048 C.3     1  ZINC000560467340   -0.1200
     17 C17       -14.4178   -4.7456   56.9272 C.3     1  ZINC000560467340   -0.1600
     18 C18       -13.3668   -3.7629   57.4836 C.3     1  ZINC000560467340    0.1100
     19 H19       -12.8070   -4.2333   58.2920 H       1  ZINC000560467340    0.0600
     20 O20       -14.0079   -2.5771   57.9578 O.3     1  ZINC000560467340   -0.5500
     21 C21       -10.2578   -0.6914   52.7437 C.2     1  ZINC000560467340   -0.6900
     22 C22        -9.6348    0.4870   52.7930 C.2     1  ZINC000560467340   -0.1000
     23 S23        -8.1585    0.4142   51.8397 S.3     1  ZINC000560467340    0.1500
     24 C24        -8.4798   -1.2623   51.4154 C.2     1  ZINC000560467340   -0.2200
     25 C25        -9.6174   -1.6585   51.9883 C.2     1  ZINC000560467340   -0.0700
     26 H26       -10.4696   -1.6800   55.3471 H       1  ZINC000560467340    0.4200
     27 H27       -12.3251   -1.3682   56.9586 H       1  ZINC000560467340    0.0600
     28 H28       -13.4314   -1.6613   55.5954 H       1  ZINC000560467340    0.0800
     29 H29       -10.9554   -4.9329   56.7720 H       1  ZINC000560467340    0.0800
     30 H30       -10.3219   -3.5446   55.8556 H       1  ZINC000560467340    0.0800
     31 H31       -10.0179   -1.3552   57.0042 H       1  ZINC000560467340    0.1300
     32 H32        -9.3204   -0.2825   59.1075 H       1  ZINC000560467340    0.1400
     33 H33       -10.3354   -3.8323   61.2505 H       1  ZINC000560467340    0.1400
     34 H34       -11.0368   -4.9000   59.1458 H       1  ZINC000560467340    0.1300
     35 H35       -13.5894   -3.5873   54.4853 H       1  ZINC000560467340    0.0700
     36 H36       -12.0955   -4.5762   54.4988 H       1  ZINC000560467340    0.0800
     37 H37       -14.4590   -5.7738   54.9972 H       1  ZINC000560467340    0.0700
     38 H38       -13.0448   -6.1871   56.0215 H       1  ZINC000560467340    0.0700
     39 H39       -15.3142   -4.2094   56.6159 H       1  ZINC000560467340    0.0800
     40 H40       -14.6642   -5.5026   57.6719 H       1  ZINC000560467340    0.0700
     41 H41       -14.6675   -2.7354   58.6470 H       1  ZINC000560467340    0.3800
     42 H42        -9.9837    1.3536   53.3350 H       1  ZINC000560467340    0.1800
     43 H43        -7.8500   -1.8779   50.7904 H       1  ZINC000560467340    0.1700
     44 H44       -10.0129   -2.6560   51.8655 H       1  ZINC000560467340    0.1500
@<TRIPOS>BOND
     1     1     2    2
     2     2     3    2
     3     2     4   am
     4     2    21    1
     5     4     5    1
     6     4    26    1
     7     5     6    1
     8     5    27    1
     9     5    28    1
    10     6    18    1
    11     6     7    1
    12     6    15    1
    13     7     8    1
    14     7    29    1
    15     7    30    1
    16     8    14   ar
    17     8     9   ar
    18     9    10   ar
    19     9    31    1
    20    10    11   ar
    21    10    32    1
    22    11    12    1
    23    11    13   ar
    24    13    14   ar
    25    13    33    1
    26    14    34    1
    27    15    16    1
    28    15    35    1
    29    15    36    1
    30    16    17    1
    31    16    37    1
    32    16    38    1
    33    17    18    1
    34    17    39    1
    35    17    40    1
    36    18    19    1
    37    18    20    1
    38    20    41    1
    39    21    25    1
    40    21    22    2
    41    22    23    1
    42    22    42    1
    43    23    24    1
    44    24    25    2
    45    24    43    1
    46    25    44    1
@<TRIPOS>SUBSTRUCTURE
     1 ZINC000560467340        1 TEMP              0 ****  ****    0 ROOT


##########                                Name:    ZINC000179211660
##########                DOCK_Rotatable_Bonds:                   6
##########                         Heavy_Atoms:                  23
##########                    Molecular_Weight:             385.208
##########                DOCK_Rotatable_Bonds:                   6
##########                       Formal_Charge:        -1.78814e-07
##########                     HBond_Acceptors:                   6
##########                        HBond_Donors:                   1
##########                         Heavy_Atoms:                  23
##########                          Grid_Score:          -29.550781
##########                     Grid_vdw_energy:          -29.095032
##########                      Grid_es_energy:           -0.455749
##########           Internal_energy_repulsive:           14.144614

@<TRIPOS>MOLECULE
ZINC000179211660
 38 39 1 0 0
SMALL
USER_CHARGES


@<TRIPOS>ATOM
      1 C1         -9.9943   -1.8275   52.0630 C.3     1  ZINC000179211660    0.0300
      2 O2        -10.8793   -2.8418   52.5424 O.3     1  ZINC000179211660   -0.2700
      3 C3        -12.2017   -2.5325   52.5950 C.ar    1  ZINC000179211660    0.1500
      4 C4        -12.6559   -1.3324   52.0682 C.ar    1  ZINC000179211660   -0.2200
      5 C5        -14.0008   -1.0204   52.1224 C.ar    1  ZINC000179211660   -0.0700
      6 C6        -14.8934   -1.9030   52.7015 C.ar    1  ZINC000179211660   -0.1700
      7 C7        -14.4430   -3.0999   53.2278 C.ar    1  ZINC000179211660   -0.0700
      8 C8        -13.1004   -3.4192   53.1706 C.ar    1  ZINC000179211660   -0.1500
      9 C9        -12.6104   -4.7238   53.7439 C.3     1  ZINC000179211660    0.1800
     10 N10       -13.0325   -4.8319   55.1426 N.am    1  ZINC000179211660   -0.6200
     11 C11       -14.1964   -5.6486   55.4955 C.3     1  ZINC000179211660    0.0700
     12 C12       -12.3501   -4.1798   56.1047 C.2     1  ZINC000179211660    0.7000
     13 O13       -11.3851   -3.5007   55.8116 O.2     1  ZINC000179211660   -0.5300
     14 N14       -12.7375   -4.2805   57.3917 N.am    1  ZINC000179211660   -0.6800
     15 C15       -12.0282   -3.6027   58.3918 C.ar    1  ZINC000179211660    0.1900
     16 C16       -12.5547   -2.4504   58.9576 C.ar    1  ZINC000179211660   -0.1400
     17 C17       -11.8523   -1.7831   59.9457 C.ar    1  ZINC000179211660    0.1500
     18 F18       -12.3644   -0.6610   60.4971 F       1  ZINC000179211660   -0.1100
     19 C19       -10.6250   -2.2649   60.3702 C.ar    1  ZINC000179211660   -0.1300
     20 Br20       -9.6681   -1.3508   61.7211 Br      1  ZINC000179211660   -0.0100
     21 C21       -10.0981   -3.4141   59.8077 C.ar    1  ZINC000179211660   -0.0700
     22 C22       -10.7980   -4.0869   58.8233 C.ar    1  ZINC000179211660    0.0600
     23 F23       -10.2830   -5.2089   58.2746 F       1  ZINC000179211660   -0.1300
     24 H24        -8.9714   -2.2037   52.0722 H       1  ZINC000179211660    0.1000
     25 H25       -10.2720   -1.5546   51.0449 H       1  ZINC000179211660    0.0500
     26 H26       -10.0646   -0.9503   52.7063 H       1  ZINC000179211660    0.0500
     27 H27       -11.9588   -0.6423   51.6163 H       1  ZINC000179211660    0.1300
     28 H28       -14.3548   -0.0861   51.7124 H       1  ZINC000179211660    0.1200
     29 H29       -15.9442   -1.6572   52.7433 H       1  ZINC000179211660    0.1200
     30 H30       -15.1423   -3.7876   53.6800 H       1  ZINC000179211660    0.1300
     31 H31       -13.0299   -5.5520   53.1727 H       1  ZINC000179211660    0.0900
     32 H32       -11.5223   -4.7590   53.6890 H       1  ZINC000179211660    0.1000
     33 H33       -13.8745   -6.6689   55.7041 H       1  ZINC000179211660    0.0600
     34 H34       -14.6782   -5.2316   56.3798 H       1  ZINC000179211660    0.0600
     35 H35       -14.9025   -5.6530   54.6650 H       1  ZINC000179211660    0.0800
     36 H36       -13.5074   -4.8223   57.6255 H       1  ZINC000179211660    0.4100
     37 H37       -13.5115   -2.0745   58.6270 H       1  ZINC000179211660    0.1800
     38 H38        -9.1410   -3.7877   60.1404 H       1  ZINC000179211660    0.1600
@<TRIPOS>BOND
     1     1     2    1
     2     1    24    1
     3     1    25    1
     4     1    26    1
     5     2     3    1
     6     3     8   ar
     7     3     4   ar
     8     4     5   ar
     9     4    27    1
    10     5     6   ar
    11     5    28    1
    12     6     7   ar
    13     6    29    1
    14     7     8   ar
    15     7    30    1
    16     8     9    1
    17     9    10    1
    18     9    31    1
    19     9    32    1
    20    10    11    1
    21    10    12   am
    22    11    33    1
    23    11    34    1
    24    11    35    1
    25    12    13    2
    26    12    14   am
    27    14    15    1
    28    14    36    1
    29    15    22   ar
    30    15    16   ar
    31    16    17   ar
    32    16    37    1
    33    17    18    1
    34    17    19   ar
    35    19    20    1
    36    19    21   ar
    37    21    22   ar
    38    21    38    1
    39    22    23    1
@<TRIPOS>SUBSTRUCTURE
     1 ZINC000179211660        1 TEMP              0 ****  ****    0 ROOT


##########                                Name:    ZINC000252489163
##########                DOCK_Rotatable_Bonds:                   6
##########                         Heavy_Atoms:                  25
##########                    Molecular_Weight:             379.403
##########                DOCK_Rotatable_Bonds:                   6
##########                       Formal_Charge:          0.00999963
##########                     HBond_Acceptors:                  10
##########                        HBond_Donors:                   2
##########                         Heavy_Atoms:                  25
##########                          Grid_Score:          -29.498852
##########                     Grid_vdw_energy:          -28.480709
##########                      Grid_es_energy:           -1.018143
##########           Internal_energy_repulsive:           19.658367

@<TRIPOS>MOLECULE
ZINC000252489163
 45 46 1 0 0
SMALL
USER_CHARGES


@<TRIPOS>ATOM
      1 C1        -11.0866    4.1702   63.5210 C.3     1  ZINC000252489163   -0.1100
      2 C2        -10.5728    2.8211   63.9535 C.ar    1  ZINC000252489163   -0.0600
      3 C3        -10.5346    1.7761   63.0516 C.ar    1  ZINC000252489163   -0.1300
      4 C4        -10.0605    0.5332   63.4508 C.ar    1  ZINC000252489163    0.1700
      5 N5        -10.0199   -0.5278   62.5391 N.am    1  ZINC000252489163   -0.6800
      6 C6        -11.1604   -0.9824   61.9831 C.2     1  ZINC000252489163    0.7100
      7 O7        -12.2244   -0.4708   62.2736 O.2     1  ZINC000252489163   -0.5500
      8 N8        -11.1213   -2.0042   61.1051 N.am    1  ZINC000252489163   -0.6200
      9 C9         -9.8432   -2.6327   60.7441 C.3     1  ZINC000252489163    0.1000
     10 C10        -9.7034   -2.6250   59.2187 C.3     1  ZINC000252489163   -0.1400
     11 C11       -10.9307   -3.2932   58.5946 C.3     1  ZINC000252489163   -0.1300
     12 C12       -12.1882   -2.5050   58.9684 C.3     1  ZINC000252489163    0.1400
     13 H13       -12.0913   -1.4776   58.6172 H       1  ZINC000252489163    0.0900
     14 N14       -13.3587   -3.1268   58.3442 N.am    1  ZINC000252489163   -1.1100
     15 S15       -14.8634   -2.9011   58.9979 S.o2    1  ZINC000252489163    2.6100
     16 C16       -15.9738   -3.8385   57.9121 C.3     1  ZINC000252489163   -0.6700
     17 O17       -14.7846   -3.5124   60.2782 O.2     1  ZINC000252489163   -0.9500
     18 O18       -15.0973   -1.5057   58.8654 O.2     1  ZINC000252489163   -0.9500
     19 C19       -12.3566   -2.5149   60.4954 C.3     1  ZINC000252489163    0.1100
     20 C20        -9.6264    0.3456   64.7562 C.ar    1  ZINC000252489163   -0.1000
     21 C21        -9.6672    1.3950   65.6537 C.ar    1  ZINC000252489163   -0.1600
     22 C22        -9.1963    1.1923   67.0708 C.3     1  ZINC000252489163    0.5100
     23 F23       -10.2068    0.5727   67.8138 F       1  ZINC000252489163   -0.1700
     24 F24        -8.0544    0.3839   67.0716 F       1  ZINC000252489163   -0.1800
     25 F25        -8.8904    2.4320   67.6424 F       1  ZINC000252489163   -0.1800
     26 C26       -10.1348    2.6325   65.2517 C.ar    1  ZINC000252489163   -0.0900
     27 H27       -10.2602    4.7672   63.1355 H       1  ZINC000252489163    0.0800
     28 H28       -11.8361    4.0403   62.7403 H       1  ZINC000252489163    0.0700
     29 H29       -11.5352    4.6788   64.3744 H       1  ZINC000252489163    0.0700
     30 H30       -10.8732    1.9250   62.0370 H       1  ZINC000252489163    0.1300
     31 H31        -9.1711   -0.9360   62.3074 H       1  ZINC000252489163    0.4100
     32 H32        -9.0215   -2.0714   61.1892 H       1  ZINC000252489163    0.0800
     33 H33        -9.8258   -3.6601   61.1076 H       1  ZINC000252489163    0.0800
     34 H34        -9.6300   -1.5966   58.8652 H       1  ZINC000252489163    0.0700
     35 H35        -8.8059   -3.1735   58.9328 H       1  ZINC000252489163    0.0900
     36 H36       -10.8223   -3.3112   57.5102 H       1  ZINC000252489163    0.0800
     37 H37       -11.0177   -4.3137   58.9676 H       1  ZINC000252489163    0.0800
     38 H38       -13.2522   -3.6705   57.5481 H       1  ZINC000252489163    0.4200
     39 H39       -15.6826   -4.8888   57.9142 H       1  ZINC000252489163    0.1300
     40 H40       -16.9984   -3.7448   58.2720 H       1  ZINC000252489163    0.1300
     41 H41       -15.9077   -3.4452   56.8977 H       1  ZINC000252489163    0.1300
     42 H42       -12.5446   -3.5332   60.8356 H       1  ZINC000252489163    0.0800
     43 H43       -13.1927   -1.8739   60.7749 H       1  ZINC000252489163    0.1100
     44 H44        -9.2576   -0.6198   65.0699 H       1  ZINC000252489163    0.1800
     45 H45       -10.1653    3.4514   65.9551 H       1  ZINC000252489163    0.1300
@<TRIPOS>BOND
     1     1     2    1
     2     1    27    1
     3     1    28    1
     4     1    29    1
     5     2    26   ar
     6     2     3   ar
     7     3     4   ar
     8     3    30    1
     9     4     5    1
    10     4    20   ar
    11     5     6   am
    12     5    31    1
    13     6     7    2
    14     6     8   am
    15     8    19    1
    16     8     9    1
    17     9    10    1
    18     9    32    1
    19     9    33    1
    20    10    11    1
    21    10    34    1
    22    10    35    1
    23    11    12    1
    24    11    36    1
    25    11    37    1
    26    12    13    1
    27    12    14    1
    28    12    19    1
    29    14    15   am
    30    14    38    1
    31    15    16    1
    32    15    17    2
    33    15    18    2
    34    16    39    1
    35    16    40    1
    36    16    41    1
    37    19    42    1
    38    19    43    1
    39    20    21   ar
    40    20    44    1
    41    21    22    1
    42    21    26   ar
    43    22    23    1
    44    22    24    1
    45    22    25    1
    46    26    45    1
@<TRIPOS>SUBSTRUCTURE
     1 ZINC000252489163        1 TEMP              0 ****  ****    0 ROOT


##########                                Name:    ZINC000469391664
##########                DOCK_Rotatable_Bonds:                   6
##########                         Heavy_Atoms:                  29
##########                    Molecular_Weight:             408.524
##########                DOCK_Rotatable_Bonds:                   6
##########                       Formal_Charge:         -0.00999999
##########                     HBond_Acceptors:                   7
##########                        HBond_Donors:                   0
##########                         Heavy_Atoms:                  29
##########                          Grid_Score:          -29.427376
##########                     Grid_vdw_energy:          -28.899536
##########                      Grid_es_energy:           -0.527839
##########           Internal_energy_repulsive:           27.880005

@<TRIPOS>MOLECULE
ZINC000469391664
 53 56 1 0 0
SMALL
USER_CHARGES


@<TRIPOS>ATOM
      1 C1        -13.3234   -2.5948   60.4827 C.3     1  ZINC000469391664   -0.1500
      2 C2        -13.0152   -1.7692   59.2319 C.3     1  ZINC000469391664   -0.1000
      3 H3        -12.2938   -0.9905   59.4795 H       1  ZINC000469391664    0.0800
      4 C4        -14.3040   -1.1249   58.7160 C.3     1  ZINC000469391664   -0.1300
      5 C5        -13.9858   -0.2715   57.4842 C.3     1  ZINC000469391664    0.1100
      6 N6        -13.2916   -1.1081   56.4957 N.am    1  ZINC000469391664   -0.6100
      7 C7        -13.7476   -1.1975   55.2306 C.2     1  ZINC000469391664    0.5600
      8 O8        -14.7423   -0.5824   54.8978 O.2     1  ZINC000469391664   -0.5000
      9 C9        -13.0398   -2.0414   54.2496 C.ar    1  ZINC000469391664   -0.1100
     10 C10       -12.9770   -3.4251   54.4288 C.ar    1  ZINC000469391664   -0.0900
     11 C11       -12.3146   -4.2083   53.5082 C.ar    1  ZINC000469391664   -0.1000
     12 C12       -11.7090   -3.6301   52.4044 C.ar    1  ZINC000469391664   -0.0900
     13 C13       -11.7619   -2.2639   52.2139 C.ar    1  ZINC000469391664   -0.1000
     14 C14       -12.4302   -1.4596   53.1274 C.ar    1  ZINC000469391664    0.1500
     15 N15       -12.4850   -0.0819   52.9374 N.am    1  ZINC000469391664   -0.5800
     16 C16       -11.7609    0.8120   53.8445 C.3     1  ZINC000469391664    0.0900
     17 C17       -13.2043    0.4298   51.9189 C.2     1  ZINC000469391664    0.6100
     18 O18       -13.2521    1.6345   51.7527 O.2     1  ZINC000469391664   -0.5200
     19 C19       -13.9285   -0.4644   51.0118 C.2     1  ZINC000469391664   -0.2600
     20 C20       -13.9290   -0.3791   49.6475 C.2     1  ZINC000469391664   -0.0500
     21 C21       -14.6947   -1.3474   49.0428 C.2     1  ZINC000469391664   -0.1500
     22 C22       -15.3010   -2.1971   49.8803 C.2     1  ZINC000469391664   -0.2600
     23 S23       -14.9300   -1.8234   51.5031 S.3     1  ZINC000469391664    0.2300
     24 C24       -12.0909   -1.8449   56.9125 C.3     1  ZINC000469391664    0.1000
     25 C25       -12.4306   -2.6808   58.1506 C.3     1  ZINC000469391664    0.1300
     26 H26       -13.1610   -3.4449   57.8845 H       1  ZINC000469391664    0.1000
     27 N27       -11.2144   -3.3221   58.6565 N.pl3   1  ZINC000469391664   -0.4500
     28 C28       -10.2045   -2.7137   59.3519 C.2     1  ZINC000469391664   -0.0500
     29 C29        -9.2890   -3.6641   59.6208 C.2     1  ZINC000469391664   -0.0300
     30 N30        -9.7279   -4.8211   59.1036 N.2     1  ZINC000469391664   -0.4900
     31 C31       -10.8830   -4.6250   58.5289 C.2     1  ZINC000469391664    0.1800
     32 H32       -12.4055   -3.0533   60.8506 H       1  ZINC000469391664    0.0600
     33 H33       -13.7394   -1.9455   61.2531 H       1  ZINC000469391664    0.0600
     34 H34       -14.0448   -3.3735   60.2354 H       1  ZINC000469391664    0.0600
     35 H35       -15.0167   -1.9037   58.4447 H       1  ZINC000469391664    0.0700
     36 H36       -14.7324   -0.4941   59.4947 H       1  ZINC000469391664    0.0900
     37 H37       -14.9122    0.1095   57.0544 H       1  ZINC000469391664    0.1000
     38 H38       -13.3446    0.5616   57.7725 H       1  ZINC000469391664    0.0800
     39 H39       -13.4468   -3.8807   55.2878 H       1  ZINC000469391664    0.1400
     40 H40       -12.2671   -5.2780   53.6482 H       1  ZINC000469391664    0.1400
     41 H41       -11.1919   -4.2521   51.6888 H       1  ZINC000469391664    0.1400
     42 H42       -11.2870   -1.8207   51.3512 H       1  ZINC000469391664    0.1400
     43 H43       -10.7882    1.0542   53.4162 H       1  ZINC000469391664    0.0600
     44 H44       -12.3340    1.7283   53.9858 H       1  ZINC000469391664    0.0900
     45 H45       -11.6216    0.3186   54.8063 H       1  ZINC000469391664    0.0700
     46 H46       -13.3827    0.3742   49.0993 H       1  ZINC000469391664    0.1500
     47 H47       -14.7996   -1.4172   47.9701 H       1  ZINC000469391664    0.1400
     48 H48       -15.9369   -3.0131   49.5700 H       1  ZINC000469391664    0.1600
     49 H49       -11.7670   -2.5022   56.1056 H       1  ZINC000469391664    0.1000
     50 H50       -11.2952   -1.1403   57.1542 H       1  ZINC000469391664    0.0800
     51 H51       -10.1518   -1.6717   59.6310 H       1  ZINC000469391664    0.1700
     52 H52        -8.3636   -3.5197   60.1586 H       1  ZINC000469391664    0.1700
     53 H53       -11.4730   -5.3784   58.0282 H       1  ZINC000469391664    0.2000
@<TRIPOS>BOND
     1     1     2    1
     2     1    32    1
     3     1    33    1
     4     1    34    1
     5     2     3    1
     6     2    25    1
     7     2     4    1
     8     4     5    1
     9     4    35    1
    10     4    36    1
    11     5     6    1
    12     5    37    1
    13     5    38    1
    14     6     7   am
    15     6    24    1
    16     7     8    2
    17     7     9    1
    18     9    14   ar
    19     9    10   ar
    20    10    11   ar
    21    10    39    1
    22    11    12   ar
    23    11    40    1
    24    12    13   ar
    25    12    41    1
    26    13    14   ar
    27    13    42    1
    28    14    15    1
    29    15    16    1
    30    15    17   am
    31    16    43    1
    32    16    44    1
    33    16    45    1
    34    17    18    2
    35    17    19    1
    36    19    23    1
    37    19    20    2
    38    20    21    1
    39    20    46    1
    40    21    22    2
    41    21    47    1
    42    22    23    1
    43    22    48    1
    44    24    25    1
    45    24    49    1
    46    24    50    1
    47    25    26    1
    48    25    27    1
    49    27    31    1
    50    27    28    1
    51    28    29    2
    52    28    51    1
    53    29    30    1
    54    29    52    1
    55    30    31    2
    56    31    53    1
@<TRIPOS>SUBSTRUCTURE
     1 ZINC000469391664        1 TEMP              0 ****  ****    0 ROOT


##########                                Name:    ZINC000966038509
##########                DOCK_Rotatable_Bonds:                   5
##########                         Heavy_Atoms:                  25
##########                    Molecular_Weight:             346.445
##########                DOCK_Rotatable_Bonds:                   5
##########                       Formal_Charge:           0.0299998
##########                     HBond_Acceptors:                   5
##########                        HBond_Donors:                   1
##########                         Heavy_Atoms:                  25
##########                          Grid_Score:          -29.373709
##########                     Grid_vdw_energy:          -29.394108
##########                      Grid_es_energy:            0.020399
##########           Internal_energy_repulsive:           15.893366

@<TRIPOS>MOLECULE
ZINC000966038509
 52 54 1 0 0
SMALL
USER_CHARGES


@<TRIPOS>ATOM
      1 C1        -12.0789   -4.5419   57.0045 C.3     1  ZINC000966038509   -0.1200
      2 C2        -11.2408   -3.5564   57.7776 C.ar    1  ZINC000966038509   -0.0100
      3 C3        -10.5637   -3.9627   58.9073 C.ar    1  ZINC000966038509   -0.1600
      4 C4         -9.7927   -3.0569   59.6199 C.ar    1  ZINC000966038509    0.1300
      5 F5         -9.1313   -3.4603   60.7267 F       1  ZINC000966038509   -0.1300
      6 C6         -9.6976   -1.7389   59.2003 C.ar    1  ZINC000966038509   -0.1600
      7 C7        -10.3707   -1.3219   58.0719 C.ar    1  ZINC000966038509   -0.0100
      8 C8        -10.2669    0.1112   57.6174 C.3     1  ZINC000966038509   -0.1200
      9 C9        -11.1444   -2.2313   57.3476 C.ar    1  ZINC000966038509   -0.1500
     10 C10       -11.8679   -1.7902   56.1376 C.2     1  ZINC000966038509    0.5700
     11 O11       -13.0129   -1.3911   56.2256 O.2     1  ZINC000966038509   -0.5200
     12 N12       -11.2588   -1.8301   54.9359 N.am    1  ZINC000966038509   -0.7100
     13 C13       -11.9758   -1.3911   53.7363 C.3     1  ZINC000966038509    0.1300
     14 H14       -13.0462   -1.3172   53.9285 H       1  ZINC000966038509    0.1200
     15 C15       -11.4115   -0.0466   53.2130 C.3     1  ZINC000966038509    0.0900
     16 N16       -10.2078   -0.4156   52.4459 N.am    1  ZINC000966038509   -0.6200
     17 C17        -9.1574    0.3912   52.1966 C.2     1  ZINC000966038509    0.5400
     18 O18        -8.2163   -0.0203   51.5518 O.2     1  ZINC000966038509   -0.5300
     19 C19        -9.1523    1.8047   52.7192 C.3     1  ZINC000966038509   -0.1100
     20 C20        -7.7467    2.4361   52.5612 C.3     1  ZINC000966038509   -0.1100
     21 C21        -8.0534    3.9542   52.5487 C.3     1  ZINC000966038509   -0.1200
     22 C22        -9.3696    4.0678   51.7521 C.3     1  ZINC000966038509   -0.1200
     23 C23       -10.0683    2.7011   51.8605 C.3     1  ZINC000966038509   -0.1100
     24 C24       -10.3428   -1.8095   51.9985 C.3     1  ZINC000966038509    0.1000
     25 C25       -11.6895   -2.3368   52.5399 C.3     1  ZINC000966038509   -0.1100
     26 H26       -12.4698   -2.2497   51.7838 H       1  ZINC000966038509    0.1000
     27 C27       -11.5536   -3.7863   53.0103 C.3     1  ZINC000966038509   -0.1400
     28 H28       -11.4638   -5.0248   56.2452 H       1  ZINC000966038509    0.0800
     29 H29       -12.4741   -5.2957   57.6855 H       1  ZINC000966038509    0.0800
     30 H30       -12.9049   -4.0178   56.5237 H       1  ZINC000966038509    0.0700
     31 H31       -10.6340   -4.9883   59.2383 H       1  ZINC000966038509    0.1400
     32 H32        -9.0955   -1.0374   59.7587 H       1  ZINC000966038509    0.1400
     33 H33        -9.4260    0.2148   56.9318 H       1  ZINC000966038509    0.0800
     34 H34       -11.1875    0.3988   57.1095 H       1  ZINC000966038509    0.0700
     35 H35       -10.1124    0.7563   58.4823 H       1  ZINC000966038509    0.0800
     36 H36       -10.3457   -2.1497   54.8655 H       1  ZINC000966038509    0.4000
     37 H37       -12.1385    0.4437   52.5657 H       1  ZINC000966038509    0.0800
     38 H38       -11.1455    0.6033   54.0467 H       1  ZINC000966038509    0.0800
     39 H39        -9.4671    1.8259   53.7625 H       1  ZINC000966038509    0.0900
     40 H40        -7.1098    2.1776   53.4072 H       1  ZINC000966038509    0.0700
     41 H41        -7.2877    2.1268   51.6222 H       1  ZINC000966038509    0.0700
     42 H42        -8.1894    4.3244   53.5649 H       1  ZINC000966038509    0.0700
     43 H43        -7.2551    4.5005   52.0463 H       1  ZINC000966038509    0.0700
     44 H44       -10.0008    4.8450   52.1827 H       1  ZINC000966038509    0.0700
     45 H45        -9.1556    4.2959   50.7079 H       1  ZINC000966038509    0.0700
     46 H46       -10.1933    2.2659   50.8689 H       1  ZINC000966038509    0.0800
     47 H47       -11.0386    2.8151   52.3438 H       1  ZINC000966038509    0.0700
     48 H48       -10.3394   -1.8512   50.9093 H       1  ZINC000966038509    0.0800
     49 H49        -9.5234   -2.4077   52.3970 H       1  ZINC000966038509    0.0700
     50 H50       -10.7904   -3.8464   53.7862 H       1  ZINC000966038509    0.0600
     51 H51       -12.5074   -4.1289   53.4116 H       1  ZINC000966038509    0.0700
     52 H52       -11.2663   -4.4161   52.1684 H       1  ZINC000966038509    0.0700
@<TRIPOS>BOND
     1     1     2    1
     2     1    28    1
     3     1    29    1
     4     1    30    1
     5     2     9   ar
     6     2     3   ar
     7     3     4   ar
     8     3    31    1
     9     4     5    1
    10     4     6   ar
    11     6     7   ar
    12     6    32    1
    13     7     8    1
    14     7     9   ar
    15     8    33    1
    16     8    34    1
    17     8    35    1
    18     9    10    1
    19    10    11    2
    20    10    12   am
    21    12    13    1
    22    12    36    1
    23    13    14    1
    24    13    25    1
    25    13    15    1
    26    15    16    1
    27    15    37    1
    28    15    38    1
    29    16    17   am
    30    16    24    1
    31    17    18    2
    32    17    19    1
    33    19    23    1
    34    19    20    1
    35    19    39    1
    36    20    21    1
    37    20    40    1
    38    20    41    1
    39    21    22    1
    40    21    42    1
    41    21    43    1
    42    22    23    1
    43    22    44    1
    44    22    45    1
    45    23    46    1
    46    23    47    1
    47    24    25    1
    48    24    48    1
    49    24    49    1
    50    25    26    1
    51    25    27    1
    52    27    50    1
    53    27    51    1
    54    27    52    1
@<TRIPOS>SUBSTRUCTURE
     1 ZINC000966038509        1 TEMP              0 ****  ****    0 ROOT


##########                                Name:    ZINC001708427409
##########                DOCK_Rotatable_Bonds:                   6
##########                         Heavy_Atoms:                  24
##########                    Molecular_Weight:             334.505
##########                DOCK_Rotatable_Bonds:                   6
##########                       Formal_Charge:          -0.0200006
##########                     HBond_Acceptors:                   5
##########                        HBond_Donors:                   1
##########                         Heavy_Atoms:                  24
##########                          Grid_Score:          -29.341908
##########                     Grid_vdw_energy:          -28.893513
##########                      Grid_es_energy:           -0.448394
##########           Internal_energy_repulsive:           20.353416

@<TRIPOS>MOLECULE
ZINC001708427409
 58 60 1 0 0
SMALL
USER_CHARGES


@<TRIPOS>ATOM
      1 C1        -13.9769   -2.0253   51.1693 C.3     1  ZINC001708427409   -0.1500
      2 C2        -13.5323   -2.6519   52.4923 C.3     1  ZINC001708427409   -0.1200
      3 C3        -12.1221   -2.1688   52.8371 C.3     1  ZINC001708427409    0.0000
      4 H4        -12.0603   -1.0910   52.6864 H       1  ZINC001708427409    0.0800
      5 C5        -11.1074   -2.8693   51.9314 C.3     1  ZINC001708427409   -0.1400
      6 C6        -11.8180   -2.4928   54.2771 C.2     1  ZINC001708427409    0.1800
      7 N7        -11.5482   -3.6713   54.7631 N.2     1  ZINC001708427409   -0.2800
      8 N8        -11.3385   -3.5887   56.0284 N.2     1  ZINC001708427409   -0.3200
      9 C9        -11.4643   -2.3429   56.4208 C.2     1  ZINC001708427409    0.3600
     10 N10       -11.3112   -1.8669   57.7133 N.3     1  ZINC001708427409   -0.4200
     11 C11       -10.0160   -2.3139   58.2968 C.3     1  ZINC001708427409    0.0400
     12 C12       -10.2204   -2.2237   59.8251 C.3     1  ZINC001708427409   -0.0900
     13 H13        -9.8124   -1.2880   60.2071 H       1  ZINC001708427409    0.0900
     14 C14        -9.5587   -3.4147   60.5211 C.3     1  ZINC001708427409   -0.1500
     15 C15       -11.7588   -2.2640   60.0282 C.3     1  ZINC001708427409   -0.0800
     16 H16       -12.0471   -3.0856   60.6837 H       1  ZINC001708427409    0.0900
     17 C17       -12.1693   -0.9173   60.6244 C.3     1  ZINC001708427409   -0.1100
     18 C18       -13.6887   -0.7650   60.5594 C.3     1  ZINC001708427409   -0.1200
     19 C19       -14.1063   -0.7008   59.0919 C.3     1  ZINC001708427409   -0.1100
     20 C20       -13.7070   -1.9693   58.3658 C.3     1  ZINC001708427409   -0.1000
     21 C21       -12.3143   -2.4649   58.6207 C.3     1  ZINC001708427409    0.1000
     22 H22       -12.3135   -3.5362   58.4196 H       1  ZINC001708427409    0.0600
     23 N23       -11.7683   -1.6038   55.3148 N.pl3   1  ZINC001708427409   -0.4700
     24 C24       -12.0027   -0.1589   55.2536 C.3     1  ZINC001708427409    0.0800
     25 C25       -10.7074    0.5514   54.8553 C.3     1  ZINC001708427409    0.1200
     26 C26       -11.0288    1.9707   54.3827 C.3     1  ZINC001708427409   -0.1800
     27 C27        -9.7692    0.6159   56.0621 C.3     1  ZINC001708427409   -0.1500
     28 O28       -10.0739   -0.1709   53.7975 O.3     1  ZINC001708427409   -0.5400
     29 H29       -13.2881   -2.3205   50.3778 H       1  ZINC001708427409    0.0600
     30 H30       -14.9815   -2.3695   50.9237 H       1  ZINC001708427409    0.0600
     31 H31       -13.9779   -0.9395   51.2638 H       1  ZINC001708427409    0.0500
     32 H32       -14.2211   -2.3568   53.2839 H       1  ZINC001708427409    0.0700
     33 H33       -13.5313   -3.7378   52.3979 H       1  ZINC001708427409    0.0800
     34 H34       -11.3272   -2.6350   50.8899 H       1  ZINC001708427409    0.0700
     35 H35       -10.1027   -2.5251   52.1770 H       1  ZINC001708427409    0.0500
     36 H36       -11.1690   -3.9471   52.0822 H       1  ZINC001708427409    0.0700
     37 H37        -9.8015   -3.3413   58.0027 H       1  ZINC001708427409    0.0600
     38 H38        -9.2093   -1.6518   57.9821 H       1  ZINC001708427409    0.0800
     39 H39        -8.4865   -3.3999   60.3259 H       1  ZINC001708427409    0.0600
     40 H40        -9.7334   -3.3509   61.5951 H       1  ZINC001708427409    0.0600
     41 H41        -9.9849   -4.3420   60.1382 H       1  ZINC001708427409    0.0600
     42 H42       -11.8441   -0.8667   61.6636 H       1  ZINC001708427409    0.0600
     43 H43       -11.6998   -0.1123   60.0591 H       1  ZINC001708427409    0.0700
     44 H44       -14.1634   -1.6214   61.0382 H       1  ZINC001708427409    0.0600
     45 H45       -13.9868    0.1532   61.0655 H       1  ZINC001708427409    0.0600
     46 H46       -15.1876   -0.5777   59.0314 H       1  ZINC001708427409    0.0600
     47 H47       -13.6213    0.1523   58.6175 H       1  ZINC001708427409    0.0600
     48 H48       -14.3980   -2.7607   58.6561 H       1  ZINC001708427409    0.0600
     49 H49       -13.8204   -1.7997   57.2951 H       1  ZINC001708427409    0.0700
     50 H50       -12.7754    0.0529   54.5146 H       1  ZINC001708427409    0.0900
     51 H51       -12.3272    0.1982   56.2311 H       1  ZINC001708427409    0.1000
     52 H52       -11.5120    2.5216   55.1896 H       1  ZINC001708427409    0.0700
     53 H53       -10.1060    2.4768   54.0988 H       1  ZINC001708427409    0.0700
     54 H54       -11.6972    1.9248   53.5230 H       1  ZINC001708427409    0.0600
     55 H55        -9.6061   -0.3897   56.4497 H       1  ZINC001708427409    0.0700
     56 H56        -8.8154    1.0473   55.7582 H       1  ZINC001708427409    0.0700
     57 H57       -10.2176    1.2361   56.8383 H       1  ZINC001708427409    0.0700
     58 H58        -9.8366   -1.0795   54.0287 H       1  ZINC001708427409    0.3800
@<TRIPOS>BOND
     1     1     2    1
     2     1    29    1
     3     1    30    1
     4     1    31    1
     5     2     3    1
     6     2    32    1
     7     2    33    1
     8     3     4    1
     9     3     5    1
    10     3     6    1
    11     5    34    1
    12     5    35    1
    13     5    36    1
    14     6    23    1
    15     6     7    2
    16     7     8    1
    17     8     9    2
    18     9    10    1
    19     9    23    1
    20    10    21    1
    21    10    11    1
    22    11    12    1
    23    11    37    1
    24    11    38    1
    25    12    13    1
    26    12    14    1
    27    12    15    1
    28    14    39    1
    29    14    40    1
    30    14    41    1
    31    15    16    1
    32    15    21    1
    33    15    17    1
    34    17    18    1
    35    17    42    1
    36    17    43    1
    37    18    19    1
    38    18    44    1
    39    18    45    1
    40    19    20    1
    41    19    46    1
    42    19    47    1
    43    20    21    1
    44    20    48    1
    45    20    49    1
    46    21    22    1
    47    23    24    1
    48    24    25    1
    49    24    50    1
    50    24    51    1
    51    25    26    1
    52    25    27    1
    53    25    28    1
    54    26    52    1
    55    26    53    1
    56    26    54    1
    57    27    55    1
    58    27    56    1
    59    27    57    1
    60    28    58    1
@<TRIPOS>SUBSTRUCTURE
     1 ZINC001708427409        1 TEMP              0 ****  ****    0 ROOT


##########                                Name:    ZINC000011498449
##########                DOCK_Rotatable_Bonds:                   5
##########                         Heavy_Atoms:                  21
##########                    Molecular_Weight:             331.198
##########                DOCK_Rotatable_Bonds:                   5
##########                       Formal_Charge:         1.30385e-07
##########                     HBond_Acceptors:                   7
##########                        HBond_Donors:                   1
##########                         Heavy_Atoms:                  21
##########                          Grid_Score:          -29.328352
##########                     Grid_vdw_energy:          -27.753279
##########                      Grid_es_energy:           -1.575074
##########           Internal_energy_repulsive:           12.647284

@<TRIPOS>MOLECULE
ZINC000011498449
 37 38 1 0 0
SMALL
USER_CHARGES


@<TRIPOS>ATOM
      1 C1        -13.5605   -2.4027   54.5787 C.3     1  ZINC000011498449   -0.1500
      2 C2        -13.0025   -2.9069   55.9112 C.3     1  ZINC000011498449    0.0700
      3 H3        -13.5441   -2.4388   56.7331 H       1  ZINC000011498449    0.0600
      4 C4        -11.5145   -2.5516   56.0103 C.3     1  ZINC000011498449    0.0800
      5 N5        -10.9598   -3.2060   57.2059 N.am    1  ZINC000011498449   -0.6100
      6 C6        -10.2435   -2.5082   58.1094 C.2     1  ZINC000011498449    0.5100
      7 O7        -10.0492   -1.3225   57.9441 O.2     1  ZINC000011498449   -0.5300
      8 C8         -9.6841   -3.2012   59.3251 C.3     1  ZINC000011498449    0.1000
      9 N9         -9.3764   -2.2066   60.3557 N.am    1  ZINC000011498449   -0.7200
     10 C10       -10.3510   -1.7575   61.1713 C.2     1  ZINC000011498449    0.5600
     11 O11       -11.4851   -2.1788   61.0526 O.2     1  ZINC000011498449   -0.5100
     12 C12       -10.0410   -0.7534   62.2093 C.ar    1  ZINC000011498449   -0.1300
     13 C13        -9.1771   -1.0733   63.2585 C.ar    1  ZINC000011498449   -0.0600
     14 C14        -8.8912   -0.1318   64.2242 C.ar    1  ZINC000011498449   -0.1100
     15 C15        -9.4587    1.1302   64.1559 C.ar    1  ZINC000011498449    0.0000
     16 Cl16       -9.0926    2.3096   65.3759 Cl      1  ZINC000011498449   -0.0400
     17 C17       -10.3163    1.4549   63.1185 C.ar    1  ZINC000011498449   -0.1100
     18 C18       -10.6067    0.5230   62.1422 C.ar    1  ZINC000011498449    0.0300
     19 Cl19      -11.6820    0.9311   60.8419 Cl      1  ZINC000011498449   -0.0100
     20 C20       -11.2107   -4.6448   57.3861 C.3     1  ZINC000011498449    0.0700
     21 C21       -12.7134   -4.8981   57.2198 C.3     1  ZINC000011498449    0.0500
     22 O22       -13.1544   -4.3264   55.9860 O.3     1  ZINC000011498449   -0.3700
     23 H23       -14.6180   -2.6573   54.5081 H       1  ZINC000011498449    0.0700
     24 H24       -13.4426   -1.3207   54.5216 H       1  ZINC000011498449    0.0800
     25 H25       -13.0184   -2.8711   53.7572 H       1  ZINC000011498449    0.0700
     26 H26       -10.9923   -2.9066   55.1218 H       1  ZINC000011498449    0.0800
     27 H27       -11.4001   -1.4710   56.0967 H       1  ZINC000011498449    0.1000
     28 H28       -10.4187   -3.9083   59.7105 H       1  ZINC000011498449    0.1000
     29 H29        -8.7740   -3.7353   59.0523 H       1  ZINC000011498449    0.1000
     30 H30        -8.4712   -1.8712   60.4512 H       1  ZINC000011498449    0.4100
     31 H31        -8.7340   -2.0567   63.3138 H       1  ZINC000011498449    0.1500
     32 H32        -8.2233   -0.3787   65.0362 H       1  ZINC000011498449    0.1500
     33 H33       -10.7557    2.4404   63.0707 H       1  ZINC000011498449    0.1500
     34 H34       -10.6579   -5.2106   56.6361 H       1  ZINC000011498449    0.0900
     35 H35       -10.8950   -4.9504   58.3836 H       1  ZINC000011498449    0.1000
     36 H36       -12.9031   -5.9714   57.2121 H       1  ZINC000011498449    0.1100
     37 H37       -13.2538   -4.4380   58.0471 H       1  ZINC000011498449    0.0600
@<TRIPOS>BOND
     1     1     2    1
     2     1    23    1
     3     1    24    1
     4     1    25    1
     5     2     3    1
     6     2    22    1
     7     2     4    1
     8     4     5    1
     9     4    26    1
    10     4    27    1
    11     5     6   am
    12     5    20    1
    13     6     7    2
    14     6     8    1
    15     8     9    1
    16     8    28    1
    17     8    29    1
    18     9    10   am
    19     9    30    1
    20    10    11    2
    21    10    12    1
    22    12    18   ar
    23    12    13   ar
    24    13    14   ar
    25    13    31    1
    26    14    15   ar
    27    14    32    1
    28    15    16    1
    29    15    17   ar
    30    17    18   ar
    31    17    33    1
    32    18    19    1
    33    20    21    1
    34    20    34    1
    35    20    35    1
    36    21    22    1
    37    21    36    1
    38    21    37    1
@<TRIPOS>SUBSTRUCTURE
     1 ZINC000011498449        1 TEMP              0 ****  ****    0 ROOT


##########                                Name:    ZINC000836820897
##########                DOCK_Rotatable_Bonds:                   5
##########                         Heavy_Atoms:                  22
##########                    Molecular_Weight:             330.355
##########                DOCK_Rotatable_Bonds:                   5
##########                       Formal_Charge:          -0.0200003
##########                     HBond_Acceptors:                   8
##########                        HBond_Donors:                   1
##########                         Heavy_Atoms:                  22
##########                          Grid_Score:          -29.261082
##########                     Grid_vdw_energy:          -28.767267
##########                      Grid_es_energy:           -0.493815
##########           Internal_energy_repulsive:            7.127004

@<TRIPOS>MOLECULE
ZINC000836820897
 38 40 1 0 0
SMALL
USER_CHARGES


@<TRIPOS>ATOM
      1 O1        -14.3440   -5.7505   57.1815 O.2     1  ZINC000836820897   -0.5200
      2 C2        -13.7308   -4.7207   56.9779 C.2     1  ZINC000836820897    0.5800
      3 C3        -13.3312   -3.8625   58.1120 C.ar    1  ZINC000836820897   -0.1600
      4 C4        -14.2956   -3.1422   58.8195 C.ar    1  ZINC000836820897   -0.0100
      5 C5        -13.9172   -2.3432   59.8773 C.ar    1  ZINC000836820897   -0.1700
      6 C6        -12.5819   -2.2541   60.2389 C.ar    1  ZINC000836820897    0.2200
      7 F7        -12.2164   -1.4696   61.2764 F       1  ZINC000836820897   -0.1100
      8 C8        -11.6199   -2.9677   59.5399 C.ar    1  ZINC000836820897   -0.7200
      9 S9         -9.9251   -2.8496   60.0071 S.o2    1  ZINC000836820897    2.7000
     10 O10        -9.8896   -2.9706   61.4224 O.2     1  ZINC000836820897   -0.9400
     11 O11        -9.2074   -3.7120   59.1351 O.2     1  ZINC000836820897   -0.9400
     12 N12        -9.4263   -1.3098   59.6568 N.am    1  ZINC000836820897   -1.0800
     13 C13        -9.4854   -0.8163   58.2787 C.3     1  ZINC000836820897    0.0700
     14 C14       -10.8248   -0.2692   57.7810 C.3     1  ZINC000836820897   -0.1800
     15 C15        -9.6687    0.6889   58.0745 C.3     1  ZINC000836820897   -0.1900
     16 C16       -11.9879   -3.7733   58.4839 C.ar    1  ZINC000836820897    0.0600
     17 N17       -13.4108   -4.3647   55.7180 N.am    1  ZINC000836820897   -0.6200
     18 C18       -13.7496   -5.1188   54.5023 C.3     1  ZINC000836820897    0.0900
     19 C19       -13.2052   -4.3187   53.3002 C.3     1  ZINC000836820897   -0.1600
     20 C20       -13.0864   -2.8789   53.8661 C.3     1  ZINC000836820897    0.0800
     21 H21       -14.0459   -2.3633   53.8270 H       1  ZINC000836820897    0.1100
     22 F22       -12.1020   -2.1529   53.1872 F       1  ZINC000836820897   -0.1900
     23 C23       -12.6683   -3.1516   55.3303 C.3     1  ZINC000836820897    0.0800
     24 H24       -15.3361   -3.2106   58.5383 H       1  ZINC000836820897    0.1500
     25 H25       -14.6624   -1.7853   60.4250 H       1  ZINC000836820897    0.1600
     26 H26        -9.0949   -0.7346   60.3641 H       1  ZINC000836820897    0.4200
     27 H27        -8.8613   -1.3492   57.5613 H       1  ZINC000836820897    0.1400
     28 H28       -11.0822   -0.4423   56.7361 H       1  ZINC000836820897    0.1100
     29 H29       -11.6620   -0.2765   58.4790 H       1  ZINC000836820897    0.1000
     30 H30        -9.7452    1.3120   58.9655 H       1  ZINC000836820897    0.1000
     31 H31        -9.1653    1.1462   57.2226 H       1  ZINC000836820897    0.1000
     32 H32       -11.2380   -4.3288   57.9404 H       1  ZINC000836820897    0.1600
     33 H33       -13.2828   -6.1032   54.5344 H       1  ZINC000836820897    0.0800
     34 H34       -14.8316   -5.2219   54.4195 H       1  ZINC000836820897    0.0800
     35 H35       -12.2285   -4.6955   52.9966 H       1  ZINC000836820897    0.0900
     36 H36       -13.9074   -4.3488   52.4670 H       1  ZINC000836820897    0.1000
     37 H37       -12.9473   -2.3121   55.9671 H       1  ZINC000836820897    0.1000
     38 H38       -11.5954   -3.3344   55.3906 H       1  ZINC000836820897    0.0900
@<TRIPOS>BOND
     1     1     2    2
     2     2     3    1
     3     2    17   am
     4     3    16   ar
     5     3     4   ar
     6     4     5   ar
     7     4    24    1
     8     5     6   ar
     9     5    25    1
    10     6     7    1
    11     6     8   ar
    12     8     9    1
    13     8    16   ar
    14     9    10    2
    15     9    11    2
    16     9    12   am
    17    12    13    1
    18    12    26    1
    19    13    15    1
    20    13    14    1
    21    13    27    1
    22    14    15    1
    23    14    28    1
    24    14    29    1
    25    15    30    1
    26    15    31    1
    27    16    32    1
    28    17    23    1
    29    17    18    1
    30    18    19    1
    31    18    33    1
    32    18    34    1
    33    19    20    1
    34    19    35    1
    35    19    36    1
    36    20    21    1
    37    20    22    1
    38    20    23    1
    39    23    37    1
    40    23    38    1
@<TRIPOS>SUBSTRUCTURE
     1 ZINC000836820897        1 TEMP              0 ****  ****    0 ROOT


##########                                Name:    ZINC000192150625
##########                DOCK_Rotatable_Bonds:                   5
##########                         Heavy_Atoms:                  28
##########                    Molecular_Weight:             377.443
##########                DOCK_Rotatable_Bonds:                   5
##########                       Formal_Charge:           0.0199997
##########                     HBond_Acceptors:                   6
##########                        HBond_Donors:                   1
##########                         Heavy_Atoms:                  28
##########                          Grid_Score:          -29.209644
##########                     Grid_vdw_energy:          -27.732777
##########                      Grid_es_energy:           -1.476867
##########           Internal_energy_repulsive:           13.487682

@<TRIPOS>MOLECULE
ZINC000192150625
 51 54 1 0 0
SMALL
USER_CHARGES


@<TRIPOS>ATOM
      1 C1         -9.4789    2.0561   65.4090 C.3     1  ZINC000192150625   -0.0800
      2 C2         -9.6688    1.1473   64.2219 C.2     1  ZINC000192150625    0.0400
      3 C3        -10.4630    1.4091   63.1751 C.2     1  ZINC000192150625   -0.1800
      4 C4        -11.3132    2.6360   62.9686 C.3     1  ZINC000192150625   -0.0800
      5 C5        -10.3382    0.2604   62.2694 C.ar    1  ZINC000192150625   -0.1000
      6 C6        -10.8962   -0.0713   61.0365 C.ar    1  ZINC000192150625   -0.0700
      7 C7        -10.5566   -1.2704   60.4340 C.ar    1  ZINC000192150625    0.1200
      8 N8        -11.1115   -1.6118   59.1961 N.am    1  ZINC000192150625   -0.6400
      9 C9        -10.3665   -1.5236   58.0765 C.2     1  ZINC000192150625    0.5100
     10 O10        -9.2140   -1.1482   58.1422 O.2     1  ZINC000192150625   -0.4900
     11 C11       -10.9588   -1.8881   56.7548 C.2     1  ZINC000192150625    0.5100
     12 O12       -11.0501   -3.0543   56.4316 O.2     1  ZINC000192150625   -0.5200
     13 N13       -11.3921   -0.9218   55.9211 N.am    1  ZINC000192150625   -0.5800
     14 C14       -11.2826    0.4947   56.2957 C.3     1  ZINC000192150625    0.0500
     15 C15       -10.5481    1.2446   55.1800 C.3     1  ZINC000192150625   -0.1200
     16 C16       -11.2636    0.9998   53.8494 C.3     1  ZINC000192150625   -0.0500
     17 C17       -10.5635    1.7635   52.7551 C.ar    1  ZINC000192150625   -0.0300
     18 C18        -9.1919    1.9619   52.7937 C.ar    1  ZINC000192150625   -0.1700
     19 C19        -8.5844    2.6673   51.7721 C.ar    1  ZINC000192150625    0.1000
     20 N20        -9.2939    3.1490   50.7703 N.ar    1  ZINC000192150625   -0.4900
     21 C21       -10.5998    2.9795   50.7008 C.ar    1  ZINC000192150625    0.1000
     22 C22       -11.2750    2.2795   51.6827 C.ar    1  ZINC000192150625   -0.1700
     23 C23       -11.2403   -0.4952   53.5233 C.3     1  ZINC000192150625   -0.1200
     24 C24       -11.9771   -1.2645   54.6176 C.3     1  ZINC000192150625    0.1100
     25 C25        -9.6627   -2.1380   61.0586 C.ar    1  ZINC000192150625   -0.1100
     26 C26        -9.1077   -1.8157   62.2773 C.ar    1  ZINC000192150625   -0.0800
     27 C27        -9.4370   -0.6165   62.8966 C.ar    1  ZINC000192150625    0.0500
     28 O28        -9.0613   -0.0405   64.0574 O.3     1  ZINC000192150625   -0.1900
     29 H29        -8.7768    1.6002   66.1071 H       1  ZINC000192150625    0.0800
     30 H30        -9.0859    3.0155   65.0730 H       1  ZINC000192150625    0.0900
     31 H31       -10.4370    2.2099   65.9058 H       1  ZINC000192150625    0.0900
     32 H32       -10.7349    3.3942   62.4405 H       1  ZINC000192150625    0.0700
     33 H33       -12.1923    2.3741   62.3798 H       1  ZINC000192150625    0.0700
     34 H34       -11.6275    3.0273   63.9362 H       1  ZINC000192150625    0.0700
     35 H35       -11.5892    0.6025   60.5543 H       1  ZINC000192150625    0.1400
     36 H36       -12.0324   -1.9118   59.1435 H       1  ZINC000192150625    0.4300
     37 H37       -12.2794    0.9166   56.4247 H       1  ZINC000192150625    0.0700
     38 H38       -10.7225    0.5843   57.2265 H       1  ZINC000192150625    0.1600
     39 H39       -10.5446    2.3121   55.4002 H       1  ZINC000192150625    0.0800
     40 H40        -9.5220    0.8831   55.1132 H       1  ZINC000192150625    0.0700
     41 H41       -12.2968    1.3387   53.9251 H       1  ZINC000192150625    0.0900
     42 H42        -8.6055    1.5704   53.6118 H       1  ZINC000192150625    0.1300
     43 H43        -7.5164    2.8261   51.7947 H       1  ZINC000192150625    0.1600
     44 H44       -11.1474    3.3890   49.8650 H       1  ZINC000192150625    0.1600
     45 H45       -12.3446    2.1437   51.6200 H       1  ZINC000192150625    0.1300
     46 H46       -11.7295   -0.6661   52.5643 H       1  ZINC000192150625    0.0800
     47 H47       -10.2076   -0.8403   53.4720 H       1  ZINC000192150625    0.0700
     48 H48       -11.8779   -2.3357   54.4415 H       1  ZINC000192150625    0.1000
     49 H49       -13.0312   -0.9874   54.6126 H       1  ZINC000192150625    0.0800
     50 H50        -9.4028   -3.0720   60.5826 H       1  ZINC000192150625    0.1400
     51 H51        -8.4160   -2.4958   62.7520 H       1  ZINC000192150625    0.1400
@<TRIPOS>BOND
     1     1     2    1
     2     1    29    1
     3     1    30    1
     4     1    31    1
     5     2    28    1
     6     2     3    2
     7     3     4    1
     8     3     5    1
     9     4    32    1
    10     4    33    1
    11     4    34    1
    12     5    27   ar
    13     5     6   ar
    14     6     7   ar
    15     6    35    1
    16     7     8    1
    17     7    25   ar
    18     8     9   am
    19     8    36    1
    20     9    10    2
    21     9    11    1
    22    11    12    2
    23    11    13   am
    24    13    24    1
    25    13    14    1
    26    14    15    1
    27    14    37    1
    28    14    38    1
    29    15    16    1
    30    15    39    1
    31    15    40    1
    32    16    17    1
    33    16    23    1
    34    16    41    1
    35    17    22   ar
    36    17    18   ar
    37    18    19   ar
    38    18    42    1
    39    19    20   ar
    40    19    43    1
    41    20    21   ar
    42    21    22   ar
    43    21    44    1
    44    22    45    1
    45    23    24    1
    46    23    46    1
    47    23    47    1
    48    24    48    1
    49    24    49    1
    50    25    26   ar
    51    25    50    1
    52    26    27   ar
    53    26    51    1
    54    27    28    1
@<TRIPOS>SUBSTRUCTURE
     1 ZINC000192150625        1 TEMP              0 ****  ****    0 ROOT


##########                                Name:    ZINC001345266033
##########                DOCK_Rotatable_Bonds:                   4
##########                         Heavy_Atoms:                  29
##########                    Molecular_Weight:               389.5
##########                DOCK_Rotatable_Bonds:                   4
##########                       Formal_Charge:          -0.0100001
##########                     HBond_Acceptors:                   6
##########                        HBond_Donors:                   0
##########                         Heavy_Atoms:                  29
##########                          Grid_Score:          -29.176796
##########                     Grid_vdw_energy:          -27.411463
##########                      Grid_es_energy:           -1.765333
##########           Internal_energy_repulsive:           11.634014

@<TRIPOS>MOLECULE
ZINC001345266033
 56 61 1 0 0
SMALL
USER_CHARGES


@<TRIPOS>ATOM
      1 C1         -9.3274   -0.9788   63.0671 C.ar    1  ZINC001345266033   -0.1100
      2 C2         -9.3794   -1.7974   61.9418 C.ar    1  ZINC001345266033   -0.0900
      3 C3        -10.4763   -1.8057   61.1301 C.ar    1  ZINC001345266033   -0.1100
      4 C4        -11.5616   -0.9808   61.4346 C.ar    1  ZINC001345266033    0.0000
      5 C5        -11.5133   -0.1456   62.5804 C.ar    1  ZINC001345266033   -0.1100
      6 C6        -10.3687   -0.1625   63.3925 C.ar    1  ZINC001345266033   -0.0900
      7 C7        -12.6184    0.6733   62.8635 C.ar    1  ZINC001345266033    0.1700
      8 N8        -13.6756    0.6697   62.0879 N.ar    1  ZINC001345266033   -0.4800
      9 C9        -13.7891   -0.0820   61.0056 C.ar    1  ZINC001345266033    0.0900
     10 C10       -12.7693   -0.9382   60.6109 C.ar    1  ZINC001345266033   -0.0700
     11 C11       -12.8996   -1.7751   59.4030 C.2     1  ZINC001345266033    0.2300
     12 N12       -13.2514   -3.0405   59.3635 N.2     1  ZINC001345266033   -0.2600
     13 N13       -13.2627   -3.4540   58.1468 N.2     1  ZINC001345266033   -0.3000
     14 C14       -12.9192   -2.4791   57.3353 C.2     1  ZINC001345266033    0.3600
     15 N15       -12.8217   -2.5549   55.9571 N.3     1  ZINC001345266033   -0.4600
     16 C16       -11.7142   -3.4306   55.5555 C.3     1  ZINC001345266033    0.0600
     17 C17       -11.4878   -3.3247   54.0461 C.3     1  ZINC001345266033   -0.1100
     18 C18       -12.7459   -3.8048   53.3126 C.3     1  ZINC001345266033   -0.0800
     19 C19       -13.9476   -3.0122   53.8380 C.3     1  ZINC001345266033   -0.1300
     20 C20       -14.3613   -1.7571   53.0714 C.3     1  ZINC001345266033   -0.1600
     21 C21       -15.2253   -3.0182   53.0007 C.3     1  ZINC001345266033   -0.1700
     22 C22       -14.0918   -2.9974   55.3626 C.3     1  ZINC001345266033    0.1100
     23 N23       -12.6817   -1.3765   58.1038 N.pl3   1  ZINC001345266033   -0.4600
     24 C24       -12.2719   -0.0478   57.6425 C.3     1  ZINC001345266033    0.1000
     25 C25       -10.9246    0.3166   58.2695 C.3     1  ZINC001345266033   -0.1400
     26 H26       -11.0002    0.3228   59.3568 H       1  ZINC001345266033    0.1000
     27 C27       -10.4409    1.6932   57.7521 C.3     1  ZINC001345266033   -0.1500
     28 C28        -8.9239    1.4489   57.5487 C.3     1  ZINC001345266033    0.0500
     29 O29        -8.8639    0.0912   57.0610 O.3     1  ZINC001345266033   -0.3700
     30 C30        -9.8320   -0.6681   57.8103 C.3     1  ZINC001345266033    0.0300
     31 H31        -8.4488   -0.9946   63.6950 H       1  ZINC001345266033    0.1300
     32 H32        -8.5393   -2.4346   61.7078 H       1  ZINC001345266033    0.1300
     33 H33       -10.5049   -2.4443   60.2596 H       1  ZINC001345266033    0.1600
     34 H34       -10.3141    0.4663   64.2688 H       1  ZINC001345266033    0.1400
     35 H35       -12.5972    1.3147   63.7321 H       1  ZINC001345266033    0.1700
     36 H36       -14.6932   -0.0293   60.4171 H       1  ZINC001345266033    0.1700
     37 H37       -10.8069   -3.1304   56.0796 H       1  ZINC001345266033    0.0700
     38 H38       -11.9557   -4.4616   55.8139 H       1  ZINC001345266033    0.0500
     39 H39       -11.2849   -2.2873   53.7801 H       1  ZINC001345266033    0.0800
     40 H40       -10.6400   -3.9472   53.7604 H       1  ZINC001345266033    0.0800
     41 H41       -12.6337   -3.6329   52.2421 H       1  ZINC001345266033    0.0700
     42 H42       -12.8970   -4.8675   53.5021 H       1  ZINC001345266033    0.0700
     43 H43       -14.7438   -0.9166   53.6506 H       1  ZINC001345266033    0.0900
     44 H44       -13.7818   -1.4937   52.1865 H       1  ZINC001345266033    0.0900
     45 H45       -15.2143   -3.5846   52.0695 H       1  ZINC001345266033    0.1000
     46 H46       -16.1762   -3.0074   53.5335 H       1  ZINC001345266033    0.1000
     47 H47       -14.3307   -4.0003   55.7164 H       1  ZINC001345266033    0.0600
     48 H48       -14.8875   -2.3088   55.6472 H       1  ZINC001345266033    0.0800
     49 H49       -12.1775   -0.0532   56.5565 H       1  ZINC001345266033    0.1100
     50 H50       -13.0209    0.6866   57.9384 H       1  ZINC001345266033    0.1100
     51 H51       -10.9242    1.9459   56.8084 H       1  ZINC001345266033    0.0800
     52 H52       -10.6132    2.4709   58.4963 H       1  ZINC001345266033    0.0900
     53 H53        -8.5194    2.1404   56.8096 H       1  ZINC001345266033    0.1000
     54 H54        -8.3900    1.5408   58.4945 H       1  ZINC001345266033    0.0600
     55 H55        -9.3539   -1.1261   58.6762 H       1  ZINC001345266033    0.0600
     56 H56       -10.2704   -1.4384   57.1759 H       1  ZINC001345266033    0.0900
@<TRIPOS>BOND
     1     1     6   ar
     2     1     2   ar
     3     1    31    1
     4     2     3   ar
     5     2    32    1
     6     3     4   ar
     7     3    33    1
     8     4    10   ar
     9     4     5   ar
    10     5     6   ar
    11     5     7   ar
    12     6    34    1
    13     7     8   ar
    14     7    35    1
    15     8     9   ar
    16     9    10   ar
    17     9    36    1
    18    10    11    1
    19    11    23    1
    20    11    12    2
    21    12    13    1
    22    13    14    2
    23    14    15    1
    24    14    23    1
    25    15    22    1
    26    15    16    1
    27    16    17    1
    28    16    37    1
    29    16    38    1
    30    17    18    1
    31    17    39    1
    32    17    40    1
    33    18    19    1
    34    18    41    1
    35    18    42    1
    36    19    21    1
    37    19    20    1
    38    19    22    1
    39    20    21    1
    40    20    43    1
    41    20    44    1
    42    21    45    1
    43    21    46    1
    44    22    47    1
    45    22    48    1
    46    23    24    1
    47    24    25    1
    48    24    49    1
    49    24    50    1
    50    25    26    1
    51    25    30    1
    52    25    27    1
    53    27    28    1
    54    27    51    1
    55    27    52    1
    56    28    29    1
    57    28    53    1
    58    28    54    1
    59    29    30    1
    60    30    55    1
    61    30    56    1
@<TRIPOS>SUBSTRUCTURE
     1 ZINC001345266033        1 TEMP              0 ****  ****    0 ROOT


##########                                Name:    ZINC000010935976
##########                DOCK_Rotatable_Bonds:                   3
##########                         Heavy_Atoms:                  26
##########                    Molecular_Weight:             391.558
##########                DOCK_Rotatable_Bonds:                   3
##########                       Formal_Charge:         -0.00999979
##########                     HBond_Acceptors:                   7
##########                        HBond_Donors:                   1
##########                         Heavy_Atoms:                  26
##########                          Grid_Score:          -29.144321
##########                     Grid_vdw_energy:          -28.631725
##########                      Grid_es_energy:           -0.512596
##########           Internal_energy_repulsive:          126.794342

@<TRIPOS>MOLECULE
ZINC000010935976
 51 54 1 0 0
SMALL
USER_CHARGES


@<TRIPOS>ATOM
      1 C1         -9.5881   -2.8499   60.4025 C.3     1  ZINC000010935976   -0.0800
      2 C2         -9.9132   -2.1357   59.1159 C.2     1  ZINC000010935976   -0.2100
      3 C3        -10.5620   -2.6812   58.1057 C.2     1  ZINC000010935976   -0.0400
      4 C4        -11.0568   -4.1045   58.1322 C.3     1  ZINC000010935976   -0.1000
      5 C5        -10.7630   -1.8049   56.9666 C.2     1  ZINC000010935976   -0.2300
      6 C6        -10.2187   -0.5398   57.1764 C.2     1  ZINC000010935976    0.0900
      7 N7        -10.3187    0.3977   56.2132 N.2     1  ZINC000010935976   -0.4900
      8 C8        -10.9194    0.1507   55.0739 C.2     1  ZINC000010935976    0.3400
      9 S9        -11.0136    1.4225   53.8581 S.3     1  ZINC000010935976    0.0500
     10 C10        -9.8480    2.6159   54.5604 C.3     1  ZINC000010935976   -0.1000
     11 H11       -10.0896    2.7901   55.6089 H       1  ZINC000010935976    0.1400
     12 C12        -9.9331    3.9340   53.7871 C.3     1  ZINC000010935976   -0.1000
     13 C13       -10.2092    3.6779   52.3167 C.3     1  ZINC000010935976   -0.1300
     14 C14        -9.0709    2.9840   51.5911 C.3     1  ZINC000010935976   -0.1400
     15 C15        -8.8872    1.5550   52.1056 C.3     1  ZINC000010935976    0.0700
     16 N16        -8.0015    1.5876   53.2808 N.am    1  ZINC000010935976   -0.7200
     17 C17        -8.4375    2.0771   54.4460 C.2     1  ZINC000010935976    0.5400
     18 O18        -7.6998    2.0940   55.4085 O.2     1  ZINC000010935976   -0.5200
     19 N19       -11.4729   -1.0681   54.8073 N.am    1  ZINC000010935976   -0.5100
     20 C20       -12.1346   -1.3031   53.5216 C.3     1  ZINC000010935976    0.1200
     21 C21       -11.2463   -2.1895   52.6243 C.3     1  ZINC000010935976   -0.1300
     22 C22       -11.7837   -3.6235   52.8558 C.3     1  ZINC000010935976   -0.1300
     23 C23       -13.3129   -3.4021   52.9648 C.3     1  ZINC000010935976   -0.1100
     24 C24       -13.4486   -2.0741   53.7381 C.3     1  ZINC000010935976   -0.1200
     25 C25       -11.4126   -2.0562   55.7210 C.2     1  ZINC000010935976    0.5600
     26 O26       -11.9056   -3.1466   55.4881 O.2     1  ZINC000010935976   -0.5000
     27 S27        -9.4840   -0.4707   58.7731 S.3     1  ZINC000010935976    0.2100
     28 H28        -9.0531   -2.1730   61.0686 H       1  ZINC000010935976    0.0700
     29 H29       -10.5118   -3.1756   60.8807 H       1  ZINC000010935976    0.0800
     30 H30        -8.9641   -3.7177   60.1887 H       1  ZINC000010935976    0.0800
     31 H31       -12.0673   -4.1303   58.5401 H       1  ZINC000010935976    0.0700
     32 H32       -11.0637   -4.5057   57.1188 H       1  ZINC000010935976    0.0800
     33 H33       -10.3973   -4.7067   58.7570 H       1  ZINC000010935976    0.0700
     34 H34       -10.7364    4.5426   54.2025 H       1  ZINC000010935976    0.0900
     35 H35        -8.9893    4.4702   53.8870 H       1  ZINC000010935976    0.0900
     36 H36       -11.1032    3.0599   52.2331 H       1  ZINC000010935976    0.0700
     37 H37       -10.4029    4.6325   51.8276 H       1  ZINC000010935976    0.0800
     38 H38        -9.2908    2.9552   50.5240 H       1  ZINC000010935976    0.0800
     39 H39        -8.1496    3.5438   51.7515 H       1  ZINC000010935976    0.0700
     40 H40        -9.8550    1.1407   52.3884 H       1  ZINC000010935976    0.1100
     41 H41        -8.4375    0.9405   51.3256 H       1  ZINC000010935976    0.0900
     42 H42        -7.0951    1.2492   53.2106 H       1  ZINC000010935976    0.4000
     43 H43       -12.3364   -0.3531   53.0266 H       1  ZINC000010935976    0.1000
     44 H44       -11.3570   -1.9049   51.5779 H       1  ZINC000010935976    0.0800
     45 H45       -10.2030   -2.1188   52.9315 H       1  ZINC000010935976    0.0700
     46 H46       -11.5461   -4.2666   52.0083 H       1  ZINC000010935976    0.0600
     47 H47       -11.3868   -4.0401   53.7814 H       1  ZINC000010935976    0.1100
     48 H48       -13.7572   -3.3133   51.9735 H       1  ZINC000010935976    0.0600
     49 H49       -13.7776   -4.2163   53.5207 H       1  ZINC000010935976    0.0700
     50 H50       -13.5938   -2.2735   54.7998 H       1  ZINC000010935976    0.0800
     51 H51       -14.2878   -1.4986   53.3475 H       1  ZINC000010935976    0.0700
@<TRIPOS>BOND
     1     1     2    1
     2     1    28    1
     3     1    29    1
     4     1    30    1
     5     2    27    1
     6     2     3    2
     7     3     4    1
     8     3     5    1
     9     4    31    1
    10     4    32    1
    11     4    33    1
    12     5    25    1
    13     5     6    2
    14     6     7    1
    15     6    27    1
    16     7     8    2
    17     8     9    1
    18     8    19    1
    19     9    10    1
    20    10    11    1
    21    10    17    1
    22    10    12    1
    23    12    13    1
    24    12    34    1
    25    12    35    1
    26    13    14    1
    27    13    36    1
    28    13    37    1
    29    14    15    1
    30    14    38    1
    31    14    39    1
    32    15    16    1
    33    15    40    1
    34    15    41    1
    35    16    17   am
    36    16    42    1
    37    17    18    2
    38    19    20    1
    39    19    25   am
    40    20    24    1
    41    20    21    1
    42    20    43    1
    43    21    22    1
    44    21    44    1
    45    21    45    1
    46    22    23    1
    47    22    46    1
    48    22    47    1
    49    23    24    1
    50    23    48    1
    51    23    49    1
    52    24    50    1
    53    24    51    1
    54    25    26    2
@<TRIPOS>SUBSTRUCTURE
     1 ZINC000010935976        1 TEMP              0 ****  ****    0 ROOT


##########                                Name:    ZINC000286156371
##########                DOCK_Rotatable_Bonds:                   7
##########                         Heavy_Atoms:                  25
##########                    Molecular_Weight:             350.418
##########                DOCK_Rotatable_Bonds:                   7
##########                       Formal_Charge:          0.00999908
##########                     HBond_Acceptors:                   8
##########                        HBond_Donors:                   2
##########                         Heavy_Atoms:                  25
##########                          Grid_Score:          -29.093706
##########                     Grid_vdw_energy:          -27.189049
##########                      Grid_es_energy:           -1.904657
##########           Internal_energy_repulsive:           27.496109

@<TRIPOS>MOLECULE
ZINC000286156371
 51 53 1 0 0
SMALL
USER_CHARGES


@<TRIPOS>ATOM
      1 C1        -12.2400   -1.9555   51.4668 C.3     1  <0>        -0.1800
      2 C2        -12.1077   -2.3171   52.9476 C.3     1  <0>         0.1400
      3 C3        -13.4909   -2.6304   53.5217 C.3     1  <0>        -0.1800
      4 C4        -11.2049   -3.5436   53.0943 C.3     1  <0>        -0.1400
      5 O5        -11.5263   -1.1991   53.6688 O.3     1  <0>        -0.3600
      6 C6        -10.4072   -0.6554   53.1544 C.2     1  <0>         0.6800
      7 O7         -9.6996   -1.3087   52.4133 O.2     1  <0>        -0.5600
      8 N8        -10.0716    0.6133   53.4613 N.am    1  <0>        -0.5800
      9 C9         -8.8800    1.3295   52.9709 C.3     1  <0>         0.0700
     10 C10        -9.2526    2.8302   53.0651 C.3     1  <0>         0.0900
     11 H11        -8.3602    3.4493   53.1555 H       1  <0>         0.0900
     12 O12       -10.0411    3.2335   51.9436 O.3     1  <0>        -0.5500
     13 C13       -10.0868    2.8625   54.3729 C.3     1  <0>        -0.1200
     14 C14       -10.8368    1.5144   54.3356 C.3     1  <0>         0.1500
     15 H15       -11.8412    1.6599   53.9382 H       1  <0>         0.1100
     16 C16       -10.9140    0.9323   55.7235 C.2     1  <0>         0.5200
     17 O17       -11.9938    0.7396   56.2411 O.2     1  <0>        -0.4900
     18 N18        -9.7831    0.6257   56.3895 N.am    1  <0>        -0.6300
     19 C19        -9.8549    0.0828   57.6797 C.2     1  <0>         0.3000
     20 N20        -9.4479   -1.1145   58.0364 N.2     1  <0>        -0.3200
     21 N21        -9.6945   -1.2674   59.4026 N.pl3   1  <0>        -0.3600
     22 C22        -9.4036   -2.4385   60.2355 C.3     1  <0>         0.1400
     23 C23        -9.4314   -2.0161   61.7081 C.3     1  <0>        -0.1400
     24 C24       -10.7271   -1.2530   61.9982 C.3     1  <0>        -0.1300
     25 C25       -10.6825    0.1056   61.2866 C.3     1  <0>        -0.0600
     26 C26       -10.2630   -0.1260   59.8558 C.2     1  <0>         0.0900
     27 C27       -10.3694    0.7268   58.8185 C.2     1  <0>        -0.2600
     28 H28       -12.8833   -1.0817   51.3623 H       1  <0>         0.0900
     29 H29       -11.2547   -1.7323   51.0579 H       1  <0>         0.0600
     30 H30       -12.6765   -2.7948   50.9254 H       1  <0>         0.0700
     31 H31       -13.9274   -3.4698   52.9803 H       1  <0>         0.0700
     32 H32       -13.3966   -2.8882   54.5766 H       1  <0>         0.0600
     33 H33       -14.1341   -1.7567   53.4171 H       1  <0>         0.0900
     34 H34       -10.2194   -3.3204   52.6854 H       1  <0>         0.0700
     35 H35       -11.1106   -3.8013   54.1492 H       1  <0>         0.0700
     36 H36       -11.6414   -4.3830   52.5529 H       1  <0>         0.0800
     37 H37        -8.0195    1.1119   53.6036 H       1  <0>         0.0800
     38 H38        -8.6710    1.0547   51.9370 H       1  <0>         0.0900
     39 H39       -10.8834    2.7648   51.8662 H       1  <0>         0.3900
     40 H40        -9.4351    2.9215   55.2447 H       1  <0>         0.1000
     41 H41       -10.7918    3.6938   54.3602 H       1  <0>         0.1100
     42 H42        -8.9195    0.7809   55.9760 H       1  <0>         0.4200
     43 H43       -10.1568   -3.2068   60.0613 H       1  <0>         0.0800
     44 H44        -8.4168   -2.8282   59.9857 H       1  <0>         0.0900
     45 H45        -9.3825   -2.9023   62.3410 H       1  <0>         0.0900
     46 H46        -8.5766   -1.3730   61.9178 H       1  <0>         0.0800
     47 H47       -11.5780   -1.8279   61.6325 H       1  <0>         0.0700
     48 H48       -10.8259   -1.0982   63.0727 H       1  <0>         0.0800
     49 H49       -11.6702    0.5659   61.3104 H       1  <0>         0.0900
     50 H50        -9.9608    0.7561   61.7808 H       1  <0>         0.0900
     51 H51       -10.7788    1.7255   58.8548 H       1  <0>         0.1700
@<TRIPOS>BOND
     1     1     2    1
     2     1    28    1
     3     1    29    1
     4     1    30    1
     5     2     3    1
     6     2     4    1
     7     2     5    1
     8     3    31    1
     9     3    32    1
    10     3    33    1
    11     4    34    1
    12     4    35    1
    13     4    36    1
    14     5     6    1
    15     6     7    2
    16     6     8   am
    17     8    14    1
    18     8     9    1
    19     9    10    1
    20     9    37    1
    21     9    38    1
    22    10    11    1
    23    10    12    1
    24    10    13    1
    25    12    39    1
    26    13    14    1
    27    13    40    1
    28    13    41    1
    29    14    15    1
    30    14    16    1
    31    16    17    2
    32    16    18   am
    33    18    19    1
    34    18    42    1
    35    19    27    1
    36    19    20    2
    37    20    21    1
    38    21    26    1
    39    21    22    1
    40    22    23    1
    41    22    43    1
    42    22    44    1
    43    23    24    1
    44    23    45    1
    45    23    46    1
    46    24    25    1
    47    24    47    1
    48    24    48    1
    49    25    26    1
    50    25    49    1
    51    25    50    1
    52    26    27    2
    53    27    51    1
@<TRIPOS>SUBSTRUCTURE
     1 <0>         1 TEMP              0 ****  ****    0 ROOT


##########                                Name:    ZINC001060620810
##########                DOCK_Rotatable_Bonds:                   5
##########                         Heavy_Atoms:                  24
##########                    Molecular_Weight:             332.421
##########                DOCK_Rotatable_Bonds:                   5
##########                       Formal_Charge:           0.0299998
##########                     HBond_Acceptors:                   6
##########                        HBond_Donors:                   2
##########                         Heavy_Atoms:                  24
##########                          Grid_Score:          -29.077335
##########                     Grid_vdw_energy:          -28.187296
##########                      Grid_es_energy:           -0.890040
##########           Internal_energy_repulsive:           10.602032

@<TRIPOS>MOLECULE
ZINC001060620810
 49 52 1 0 0
SMALL
USER_CHARGES


@<TRIPOS>ATOM
      1 O1        -11.6491   -4.6368   57.5027 O.2     1  ZINC001060620810   -0.5400
      2 C2        -11.6535   -3.4272   57.5923 C.2     1  ZINC001060620810    0.5500
      3 N3        -12.4794   -2.6971   56.8168 N.am    1  ZINC001060620810   -0.7200
      4 C4        -13.3731   -3.3646   55.8671 C.3     1  ZINC001060620810    0.1400
      5 C5        -14.5918   -2.4778   55.6041 C.3     1  ZINC001060620810   -0.1300
      6 C6        -15.5253   -3.1748   54.6122 C.3     1  ZINC001060620810   -0.1300
      7 C7        -14.7809   -3.4216   53.2984 C.3     1  ZINC001060620810    0.1600
      8 N8        -14.3414   -2.1413   52.7383 N.pl3   1  ZINC001060620810   -0.6900
      9 C9        -14.4641   -1.9010   51.3794 C.ar    1  ZINC001060620810    0.5600
     10 N10       -13.8918   -0.8256   50.8593 N.ar    1  ZINC001060620810   -0.5400
     11 C11       -13.9850   -0.5685   49.5650 C.ar    1  ZINC001060620810    0.1700
     12 C12       -14.7019   -1.4360   48.7529 C.ar    1  ZINC001060620810   -0.0700
     13 F13       -14.8215   -1.2016   47.4278 F       1  ZINC001060620810   -0.1300
     14 C14       -15.2928   -2.5500   49.3325 C.ar    1  ZINC001060620810    0.1800
     15 N15       -15.1554   -2.7493   50.6332 N.ar    1  ZINC001060620810   -0.5500
     16 C16       -13.5622   -4.3084   53.5615 C.3     1  ZINC001060620810   -0.1200
     17 C17       -12.6288   -3.6113   54.5533 C.3     1  ZINC001060620810   -0.1300
     18 C18       -10.7354   -2.7408   58.5705 C.3     1  ZINC001060620810   -0.1500
     19 C19        -9.9111   -3.6571   59.4652 C.3     1  ZINC001060620810   -0.1500
     20 C20       -11.0899   -2.9017   60.0404 C.3     1  ZINC001060620810   -0.1100
     21 H21       -11.9679   -3.5016   60.2794 H       1  ZINC001060620810    0.1100
     22 C22       -10.7937   -1.7864   61.0381 C.3     1  ZINC001060620810   -0.0900
     23 C23       -10.5941   -0.4568   60.3103 C.3     1  ZINC001060620810   -0.1200
     24 C24        -9.5250   -0.6477   59.2284 C.3     1  ZINC001060620810   -0.1200
     25 C25       -10.1386   -1.4345   58.0703 C.3     1  ZINC001060620810   -0.0800
     26 H26       -12.4820   -1.7297   56.8875 H       1  ZINC001060620810    0.4000
     27 H27       -13.7002   -4.3172   56.2839 H       1  ZINC001060620810    0.0900
     28 H28       -15.1221   -2.3019   56.5400 H       1  ZINC001060620810    0.0700
     29 H29       -14.2648   -1.5252   55.1873 H       1  ZINC001060620810    0.0600
     30 H30       -16.3935   -2.5430   54.4248 H       1  ZINC001060620810    0.0700
     31 H31       -15.8523   -4.1274   55.0290 H       1  ZINC001060620810    0.0800
     32 H32       -15.4459   -3.9182   52.5919 H       1  ZINC001060620810    0.1000
     33 H33       -13.9645   -1.4617   53.3188 H       1  ZINC001060620810    0.4100
     34 H34       -13.5129    0.3080   49.1463 H       1  ZINC001060620810    0.1800
     35 H35       -15.8580   -3.2451   48.7296 H       1  ZINC001060620810    0.1800
     36 H36       -13.0320   -4.4842   52.6255 H       1  ZINC001060620810    0.0800
     37 H37       -13.8893   -5.2610   53.9783 H       1  ZINC001060620810    0.0900
     38 H38       -12.3019   -2.6588   54.1366 H       1  ZINC001060620810    0.0700
     39 H39       -11.7606   -4.2431   54.7408 H       1  ZINC001060620810    0.0800
     40 H40       -10.0282   -4.7322   59.3299 H       1  ZINC001060620810    0.1000
     41 H41        -8.9115   -3.3234   59.7438 H       1  ZINC001060620810    0.1100
     42 H42        -9.8824   -2.0427   61.5784 H       1  ZINC001060620810    0.0700
     43 H43       -11.6181   -1.6912   61.7448 H       1  ZINC001060620810    0.0700
     44 H44       -10.2656    0.3029   61.0195 H       1  ZINC001060620810    0.0700
     45 H45       -11.5318   -0.1484   59.8478 H       1  ZINC001060620810    0.0700
     46 H46        -8.6817   -1.2017   59.6410 H       1  ZINC001060620810    0.0700
     47 H47        -9.1876    0.3254   58.8716 H       1  ZINC001060620810    0.0700
     48 H48        -9.3654   -1.6513   57.3331 H       1  ZINC001060620810    0.0700
     49 H49       -10.9218   -0.8362   57.6047 H       1  ZINC001060620810    0.0700
@<TRIPOS>BOND
     1     1     2    2
     2     2     3   am
     3     2    18    1
     4     3     4    1
     5     3    26    1
     6     4    17    1
     7     4     5    1
     8     4    27    1
     9     5     6    1
    10     5    28    1
    11     5    29    1
    12     6     7    1
    13     6    30    1
    14     6    31    1
    15     7     8    1
    16     7    16    1
    17     7    32    1
    18     8     9    1
    19     8    33    1
    20     9    15   ar
    21     9    10   ar
    22    10    11   ar
    23    11    12   ar
    24    11    34    1
    25    12    13    1
    26    12    14   ar
    27    14    15   ar
    28    14    35    1
    29    16    17    1
    30    16    36    1
    31    16    37    1
    32    17    38    1
    33    17    39    1
    34    18    20    1
    35    18    25    1
    36    18    19    1
    37    19    20    1
    38    19    40    1
    39    19    41    1
    40    20    21    1
    41    20    22    1
    42    22    23    1
    43    22    42    1
    44    22    43    1
    45    23    24    1
    46    23    44    1
    47    23    45    1
    48    24    25    1
    49    24    46    1
    50    24    47    1
    51    25    48    1
    52    25    49    1
@<TRIPOS>SUBSTRUCTURE
     1 ZINC001060620810        1 TEMP              0 ****  ****    0 ROOT


##########                                Name:    ZINC000950547210
##########                DOCK_Rotatable_Bonds:                   5
##########                         Heavy_Atoms:                  25
##########                    Molecular_Weight:              346.47
##########                DOCK_Rotatable_Bonds:                   5
##########                       Formal_Charge:         5.58794e-07
##########                     HBond_Acceptors:                   5
##########                        HBond_Donors:                   1
##########                         Heavy_Atoms:                  25
##########                          Grid_Score:          -29.072350
##########                     Grid_vdw_energy:          -28.615847
##########                      Grid_es_energy:           -0.456503
##########           Internal_energy_repulsive:           19.690886

@<TRIPOS>MOLECULE
ZINC000950547210
 55 58 1 0 0
SMALL
USER_CHARGES


@<TRIPOS>ATOM
      1 O1        -10.6559   -3.6039   57.5424 O.2     1  ZINC000950547210   -0.5200
      2 C2        -11.5781   -3.3333   58.2822 C.2     1  ZINC000950547210    0.5200
      3 N3        -12.8475   -3.4308   57.8403 N.am    1  ZINC000950547210   -0.7300
      4 C4        -13.1134   -3.8578   56.4643 C.3     1  ZINC000950547210    0.1300
      5 H5        -12.1978   -4.2504   56.0220 H       1  ZINC000950547210    0.0900
      6 C6        -14.1878   -4.9477   56.4663 C.3     1  ZINC000950547210   -0.1300
      7 C7        -14.4428   -5.4177   55.0324 C.3     1  ZINC000950547210   -0.1300
      8 C8        -14.9509   -4.2393   54.1958 C.3     1  ZINC000950547210    0.1000
      9 N9        -13.9912   -3.1323   54.3063 N.am    1  ZINC000950547210   -0.6100
     10 C10       -13.4740   -2.5590   53.2016 C.2     1  ZINC000950547210    0.5600
     11 O11       -13.8010   -2.9573   52.1000 O.2     1  ZINC000950547210   -0.5200
     12 C12       -12.5142   -1.4515   53.3283 C.2     1  ZINC000950547210   -0.1400
     13 C13       -12.9678   -0.2435   53.6107 C.2     1  ZINC000950547210   -0.1500
     14 C14       -12.0631    0.9482   53.7504 C.3     1  ZINC000950547210    0.0900
     15 O15       -10.7077    0.5208   53.8989 O.3     1  ZINC000950547210   -0.3700
     16 C16       -10.3014   -0.4186   52.8965 C.3     1  ZINC000950547210    0.0600
     17 C17       -11.0493   -1.7346   53.1379 C.3     1  ZINC000950547210   -0.1100
     18 C18       -13.6056   -2.6616   55.6437 C.3     1  ZINC000950547210    0.1000
     19 C19       -11.3046   -2.8940   59.6976 C.3     1  ZINC000950547210   -0.1000
     20 H20       -11.3883   -3.7505   60.3666 H       1  ZINC000950547210    0.1000
     21 C21       -12.3219   -1.8266   60.1059 C.3     1  ZINC000950547210   -0.1100
     22 C22       -11.5876   -0.5341   60.4679 C.3     1  ZINC000950547210   -0.0900
     23 C23       -10.6317   -0.7997   61.6326 C.3     1  ZINC000950547210   -0.1100
     24 C24        -9.6144   -1.8669   61.2243 C.3     1  ZINC000950547210   -0.1100
     25 C25        -9.8920   -2.3130   59.7873 C.3     1  ZINC000950547210   -0.0600
     26 C26        -9.7744   -1.1107   58.8484 C.3     1  ZINC000950547210   -0.1300
     27 C27       -10.7918   -0.0434   59.2567 C.3     1  ZINC000950547210   -0.1200
     28 H28       -13.5852   -3.2181   58.4333 H       1  ZINC000950547210    0.4000
     29 H29       -13.8495   -5.7900   57.0699 H       1  ZINC000950547210    0.0800
     30 H30       -15.1103   -4.5473   56.8867 H       1  ZINC000950547210    0.0700
     31 H31       -13.5148   -5.7954   54.6030 H       1  ZINC000950547210    0.0700
     32 H32       -15.1911   -6.2102   55.0369 H       1  ZINC000950547210    0.0900
     33 H33       -15.0397   -4.5431   53.1528 H       1  ZINC000950547210    0.0900
     34 H34       -15.9234   -3.9185   54.5692 H       1  ZINC000950547210    0.0700
     35 H35       -14.0305   -0.1068   53.7460 H       1  ZINC000950547210    0.1200
     36 H36       -12.1495    1.5738   52.8621 H       1  ZINC000950547210    0.0700
     37 H37       -12.3583    1.5252   54.6267 H       1  ZINC000950547210    0.1100
     38 H38       -10.5472   -0.0293   51.9085 H       1  ZINC000950547210    0.0600
     39 H39        -9.2274   -0.5903   52.9691 H       1  ZINC000950547210    0.1000
     40 H40       -10.6489   -2.2217   54.0270 H       1  ZINC000950547210    0.0900
     41 H41       -10.9195   -2.3892   52.2761 H       1  ZINC000950547210    0.0900
     42 H42       -14.4683   -2.2121   56.1357 H       1  ZINC000950547210    0.0700
     43 H43       -12.8075   -1.9245   55.5556 H       1  ZINC000950547210    0.1000
     44 H44       -13.0029   -1.6374   59.2761 H       1  ZINC000950547210    0.0700
     45 H45       -12.8888   -2.1762   60.9687 H       1  ZINC000950547210    0.0700
     46 H46       -12.3123    0.2263   60.7587 H       1  ZINC000950547210    0.0700
     47 H47       -10.1086    0.1212   61.8905 H       1  ZINC000950547210    0.0600
     48 H48       -11.1987   -1.1492   62.4955 H       1  ZINC000950547210    0.0600
     49 H49        -8.6080   -1.4530   61.2883 H       1  ZINC000950547210    0.0700
     50 H50        -9.6981   -2.7234   61.8932 H       1  ZINC000950547210    0.0600
     51 H51        -9.1673   -3.0733   59.4965 H       1  ZINC000950547210    0.0800
     52 H52        -8.7681   -0.6967   58.9124 H       1  ZINC000950547210    0.0600
     53 H53        -9.9722   -1.4284   57.8247 H       1  ZINC000950547210    0.0900
     54 H54       -11.4728    0.1458   58.4269 H       1  ZINC000950547210    0.0600
     55 H55       -10.2687    0.8775   59.5146 H       1  ZINC000950547210    0.0600
@<TRIPOS>BOND
     1     1     2    2
     2     2     3   am
     3     2    19    1
     4     3     4    1
     5     3    28    1
     6     4     5    1
     7     4    18    1
     8     4     6    1
     9     6     7    1
    10     6    29    1
    11     6    30    1
    12     7     8    1
    13     7    31    1
    14     7    32    1
    15     8     9    1
    16     8    33    1
    17     8    34    1
    18     9    10   am
    19     9    18    1
    20    10    11    2
    21    10    12    1
    22    12    17    1
    23    12    13    2
    24    13    14    1
    25    13    35    1
    26    14    15    1
    27    14    36    1
    28    14    37    1
    29    15    16    1
    30    16    17    1
    31    16    38    1
    32    16    39    1
    33    17    40    1
    34    17    41    1
    35    18    42    1
    36    18    43    1
    37    19    20    1
    38    19    25    1
    39    19    21    1
    40    21    22    1
    41    21    44    1
    42    21    45    1
    43    22    27    1
    44    22    23    1
    45    22    46    1
    46    23    24    1
    47    23    47    1
    48    23    48    1
    49    24    25    1
    50    24    49    1
    51    24    50    1
    52    25    26    1
    53    25    51    1
    54    26    27    1
    55    26    52    1
    56    26    53    1
    57    27    54    1
    58    27    55    1
@<TRIPOS>SUBSTRUCTURE
     1 ZINC000950547210        1 TEMP              0 ****  ****    0 ROOT


##########                                Name:    ZINC000518937710
##########                DOCK_Rotatable_Bonds:                   6
##########                         Heavy_Atoms:                  25
##########                    Molecular_Weight:             397.421
##########                DOCK_Rotatable_Bonds:                   6
##########                       Formal_Charge:          -0.0199997
##########                     HBond_Acceptors:                  11
##########                        HBond_Donors:                   0
##########                         Heavy_Atoms:                  25
##########                          Grid_Score:          -29.067324
##########                     Grid_vdw_energy:          -29.099800
##########                      Grid_es_energy:            0.032476
##########           Internal_energy_repulsive:           25.881723

@<TRIPOS>MOLECULE
ZINC000518937710
 42 44 1 0 0
SMALL
USER_CHARGES


@<TRIPOS>ATOM
      1 C1        -11.1756   -3.1859   53.6951 C.3     1  ZINC000518937710   -0.1900
      2 C2        -11.7614   -3.0323   55.1000 C.3     1  ZINC000518937710    0.1700
      3 H3        -10.9527   -3.0093   55.8304 H       1  ZINC000518937710    0.1100
      4 C4        -12.5587   -1.7290   55.1804 C.3     1  ZINC000518937710   -0.6600
      5 S5        -11.5480   -0.4499   55.9761 S.o2    1  ZINC000518937710    2.4000
      6 C6        -12.6115    1.0123   55.8308 C.3     1  ZINC000518937710   -0.6600
      7 O7        -11.4093   -0.7738   57.3527 O.2     1  ZINC000518937710   -0.9200
      8 O8        -10.3817   -0.2413   55.1915 O.2     1  ZINC000518937710   -0.9300
      9 N9        -12.6461   -4.1643   55.3868 N.am    1  ZINC000518937710   -0.9600
     10 C10       -13.6041   -4.6196   54.3763 C.3     1  ZINC000518937710    0.0800
     11 C11       -15.0718   -4.7317   54.7940 C.3     1  ZINC000518937710   -0.1800
     12 C12       -14.6255   -3.6030   53.8624 C.3     1  ZINC000518937710   -0.1800
     13 S13       -12.5633   -4.9292   56.8532 S.o2    1  ZINC000518937710    2.6900
     14 O14       -13.6320   -5.8655   56.8784 O.2     1  ZINC000518937710   -0.9400
     15 O15       -11.2032   -5.2972   57.0376 O.2     1  ZINC000518937710   -0.9400
     16 C16       -12.9255   -3.7272   58.0896 C.ar    1  ZINC000518937710   -0.6400
     17 C17       -14.1689   -3.1240   58.1235 C.ar    1  ZINC000518937710   -0.0300
     18 C18       -14.4567   -2.1805   59.0921 C.ar    1  ZINC000518937710   -0.1300
     19 C19       -13.5025   -1.8366   60.0313 C.ar    1  ZINC000518937710   -0.0300
     20 C20       -12.2543   -2.4370   60.0035 C.ar    1  ZINC000518937710    0.0200
     21 C21       -11.9660   -3.3913   59.0308 C.ar    1  ZINC000518937710    0.1900
     22 O22       -10.6859   -3.8282   59.2141 O.3     1  ZINC000518937710   -0.2800
     23 C23       -10.0583   -2.8392   60.0515 C.3     1  ZINC000518937710    0.5700
     24 F24        -9.1352   -3.4397   60.9142 F       1  ZINC000518937710   -0.1200
     25 F25        -9.4349   -1.8589   59.2720 F       1  ZINC000518937710   -0.1400
     26 O26       -11.1562   -2.2794   60.7989 O.3     1  ZINC000518937710   -0.2900
     27 H27       -11.9856   -3.2458   52.9682 H       1  ZINC000518937710    0.1000
     28 H28       -10.5462   -2.3256   53.4678 H       1  ZINC000518937710    0.0800
     29 H29       -10.5775   -4.0961   53.6483 H       1  ZINC000518937710    0.0700
     30 H30       -12.8286   -1.4055   54.1751 H       1  ZINC000518937710    0.1600
     31 H31       -13.4642   -1.8923   55.7649 H       1  ZINC000518937710    0.1400
     32 H32       -13.5167    0.8633   56.4195 H       1  ZINC000518937710    0.1300
     33 H33       -12.0778    1.8880   56.2005 H       1  ZINC000518937710    0.1300
     34 H34       -12.8790    1.1646   54.7852 H       1  ZINC000518937710    0.1300
     35 H35       -13.2250   -5.3549   53.6665 H       1  ZINC000518937710    0.1500
     36 H36       -15.6584   -5.5409   54.3591 H       1  ZINC000518937710    0.1100
     37 H37       -15.3244   -4.4666   55.8206 H       1  ZINC000518937710    0.1000
     38 H38       -14.5847   -2.5954   54.2762 H       1  ZINC000518937710    0.1000
     39 H39       -14.9187   -3.6696   52.8146 H       1  ZINC000518937710    0.1000
     40 H40       -14.9170   -3.3901   57.3913 H       1  ZINC000518937710    0.1600
     41 H41       -15.4290   -1.7109   59.1149 H       1  ZINC000518937710    0.1600
     42 H42       -13.7301   -1.0992   60.7869 H       1  ZINC000518937710    0.1500
@<TRIPOS>BOND
     1     1     2    1
     2     1    27    1
     3     1    28    1
     4     1    29    1
     5     2     3    1
     6     2     4    1
     7     2     9    1
     8     4     5    1
     9     4    30    1
    10     4    31    1
    11     5     6    1
    12     5     7    2
    13     5     8    2
    14     6    32    1
    15     6    33    1
    16     6    34    1
    17     9    10    1
    18     9    13   am
    19    10    12    1
    20    10    11    1
    21    10    35    1
    22    11    12    1
    23    11    36    1
    24    11    37    1
    25    12    38    1
    26    12    39    1
    27    13    14    2
    28    13    15    2
    29    13    16    1
    30    16    21   ar
    31    16    17   ar
    32    17    18   ar
    33    17    40    1
    34    18    19   ar
    35    18    41    1
    36    19    20   ar
    37    19    42    1
    38    20    26    1
    39    20    21   ar
    40    21    22    1
    41    22    23    1
    42    23    24    1
    43    23    25    1
    44    23    26    1
@<TRIPOS>SUBSTRUCTURE
     1 ZINC000518937710        1 TEMP              0 ****  ****    0 ROOT


##########                                Name:    ZINC001231746020
##########                DOCK_Rotatable_Bonds:                   3
##########                         Heavy_Atoms:                  19
##########                    Molecular_Weight:             348.667
##########                DOCK_Rotatable_Bonds:                   3
##########                       Formal_Charge:          -0.0399997
##########                     HBond_Acceptors:                   4
##########                        HBond_Donors:                   2
##########                         Heavy_Atoms:                  19
##########                          Grid_Score:          -29.035416
##########                     Grid_vdw_energy:          -26.239689
##########                      Grid_es_energy:           -2.795727
##########           Internal_energy_repulsive:           11.623592

@<TRIPOS>MOLECULE
ZINC001231746020
 38 39 1 0 0
SMALL
USER_CHARGES


@<TRIPOS>ATOM
      1 C1        -11.0503    3.1281   64.0942 C.3     1  ZINC001231746020   -0.1500
      2 C2        -10.9173    1.8427   63.2752 C.3     1  ZINC001231746020   -0.0900
      3 H3        -10.2828    2.0262   62.4080 H       1  ZINC001231746020    0.0800
      4 C4        -10.3066    0.7624   64.1274 C.3     1  ZINC001231746020   -0.1400
      5 C5         -9.4489   -0.2370   63.3306 C.3     1  ZINC001231746020   -0.0100
      6 N6        -10.0588   -0.6483   62.0480 N.4     1  ZINC001231746020   -0.3800
      7 H7         -9.9122    0.0806   61.3659 H       1  ZINC001231746020    0.4100
      8 C8         -9.4055   -1.8782   61.5806 C.3     1  ZINC001231746020    0.0700
      9 C9         -9.8306   -2.1655   60.1636 C.ar    1  ZINC001231746020   -0.3100
     10 C10       -10.1349   -3.4593   59.7835 C.ar    1  ZINC001231746020   -0.0300
     11 C11       -10.5256   -3.7258   58.4841 C.ar    1  ZINC001231746020   -0.1600
     12 Cl12      -10.9074   -5.3508   58.0076 Cl      1  ZINC001231746020   -0.0800
     13 C13       -10.6116   -2.6928   57.5613 C.ar    1  ZINC001231746020    0.3100
     14 O14       -10.9959   -2.9518   56.2833 O.3     1  ZINC001231746020   -0.6300
     15 C15       -10.3051   -1.3951   57.9457 C.ar    1  ZINC001231746020   -0.2100
     16 Br16      -10.4209    0.0158   56.6918 Br      1  ZINC001231746020   -0.0600
     17 C17        -9.9210   -1.1336   59.2475 C.ar    1  ZINC001231746020   -0.0200
     18 C18       -11.4754   -0.8894   62.1780 C.3     1  ZINC001231746020   -0.0200
     19 C19       -12.2132    0.3872   61.7430 C.3     1  ZINC001231746020   -0.1800
     20 C20       -12.3191    1.3780   62.8070 C.3     1  ZINC001231746020    0.1000
     21 H21       -12.8774    2.2391   62.4398 H       1  ZINC001231746020    0.0700
     22 O22       -13.0174    0.8047   63.9142 O.3     1  ZINC001231746020   -0.5600
     23 H23       -10.0644    3.4471   64.4323 H       1  ZINC001231746020    0.0600
     24 H24       -11.6888    2.9438   64.9583 H       1  ZINC001231746020    0.0700
     25 H25       -11.4926    3.9090   63.4755 H       1  ZINC001231746020    0.0600
     26 H26        -9.6816    1.2297   64.8883 H       1  ZINC001231746020    0.1000
     27 H27       -11.1077    0.2143   64.6232 H       1  ZINC001231746020    0.1000
     28 H28        -8.4807    0.2200   63.1258 H       1  ZINC001231746020    0.1200
     29 H29        -9.2899   -1.1252   63.9420 H       1  ZINC001231746020    0.1200
     30 H30        -8.3235   -1.7512   61.6167 H       1  ZINC001231746020    0.1200
     31 H31        -9.6952   -2.7101   62.2226 H       1  ZINC001231746020    0.1200
     32 H32       -10.0676   -4.2627   60.5022 H       1  ZINC001231746020    0.1100
     33 H33        -9.6873   -0.1231   59.5485 H       1  ZINC001231746020    0.1100
     34 H34       -11.7683   -1.7212   61.5372 H       1  ZINC001231746020    0.1400
     35 H35       -11.7166   -1.1205   63.2155 H       1  ZINC001231746020    0.1300
     36 H36       -11.6796    0.8312   60.9026 H       1  ZINC001231746020    0.0900
     37 H37       -13.2175    0.1176   61.4164 H       1  ZINC001231746020    0.1100
     38 H38       -13.9324    0.5609   63.7184 H       1  ZINC001231746020    0.3900
@<TRIPOS>BOND
     1     1     2    1
     2     1    23    1
     3     1    24    1
     4     1    25    1
     5     2     3    1
     6     2    20    1
     7     2     4    1
     8     4     5    1
     9     4    26    1
    10     4    27    1
    11     5     6    1
    12     5    28    1
    13     5    29    1
    14     6     7    1
    15     6     8    1
    16     6    18    1
    17     8     9    1
    18     8    30    1
    19     8    31    1
    20     9    17   ar
    21     9    10   ar
    22    10    11   ar
    23    10    32    1
    24    11    12    1
    25    11    13   ar
    26    13    14    1
    27    13    15   ar
    28    15    16    1
    29    15    17   ar
    30    17    33    1
    31    18    19    1
    32    18    34    1
    33    18    35    1
    34    19    20    1
    35    19    36    1
    36    19    37    1
    37    20    21    1
    38    20    22    1
    39    22    38    1
@<TRIPOS>SUBSTRUCTURE
     1 ZINC001231746020        1 TEMP              0 ****  ****    0 ROOT


##########                                Name:    ZINC000187810810
##########                DOCK_Rotatable_Bonds:                   7
##########                         Heavy_Atoms:                  27
##########                    Molecular_Weight:             386.414
##########                DOCK_Rotatable_Bonds:                   7
##########                       Formal_Charge:           0.0599998
##########                     HBond_Acceptors:                   8
##########                        HBond_Donors:                   1
##########                         Heavy_Atoms:                  27
##########                          Grid_Score:          -29.020437
##########                     Grid_vdw_energy:          -26.595722
##########                      Grid_es_energy:           -2.424715
##########           Internal_energy_repulsive:           39.906624

@<TRIPOS>MOLECULE
ZINC000187810810
 52 53 1 0 0
SMALL
USER_CHARGES


@<TRIPOS>ATOM
      1 C1         -9.4540   -2.0134   59.1319 C.3     1  ZINC000187810810   -0.1800
      2 C2        -10.7232   -1.3554   59.6770 C.3     1  ZINC000187810810    0.1400
      3 C3        -11.8595   -2.3797   59.6992 C.3     1  ZINC000187810810   -0.1800
      4 C4        -10.4653   -0.8489   61.0975 C.3     1  ZINC000187810810   -0.1400
      5 O5        -11.0940   -0.2396   58.8251 O.3     1  ZINC000187810810   -0.3600
      6 C6        -10.7618   -0.3275   57.5234 C.2     1  ZINC000187810810    0.6500
      7 O7        -11.2938   -1.1597   56.8155 O.2     1  ZINC000187810810   -0.5600
      8 N8         -9.8392    0.5073   57.0053 N.am    1  ZINC000187810810   -0.6000
      9 C9         -9.1816    1.5133   57.8504 C.3     1  ZINC000187810810    0.1100
     10 C10        -9.3444    2.8891   57.1965 C.3     1  ZINC000187810810   -0.1400
     11 C11        -8.8174    2.8326   55.7607 C.3     1  ZINC000187810810    0.1800
     12 C12        -8.9465    4.2139   55.1156 C.3     1  ZINC000187810810   -0.1600
     13 N13        -7.4090    2.4295   55.7733 N.am    1  ZINC000187810810   -0.7100
     14 C14        -6.4982    3.1831   56.4207 C.2     1  ZINC000187810810    0.5500
     15 O15        -6.8451    4.1979   56.9929 O.2     1  ZINC000187810810   -0.5100
     16 C16        -5.0771    2.7754   56.4349 C.ar    1  ZINC000187810810   -0.0900
     17 C17        -4.5399    2.1452   57.5583 C.ar    1  ZINC000187810810   -0.0900
     18 C18        -3.2130    1.7670   57.5649 C.ar    1  ZINC000187810810   -0.0900
     19 C19        -2.4154    2.0115   56.4613 C.ar    1  ZINC000187810810   -0.0900
     20 C20        -2.9417    2.6364   55.3444 C.ar    1  ZINC000187810810   -0.0800
     21 C21        -4.2682    3.0141   55.3225 C.ar    1  ZINC000187810810   -0.1300
     22 C22        -4.8398    3.6941   54.1052 C.3     1  ZINC000187810810    0.5200
     23 F23        -5.8219    2.8782   53.5332 F       1  ZINC000187810810   -0.1800
     24 F24        -5.4085    4.9169   54.4779 F       1  ZINC000187810810   -0.1600
     25 F25        -3.8199    3.9187   53.1742 F       1  ZINC000187810810   -0.1600
     26 C26        -9.6311    1.8161   54.9565 C.3     1  ZINC000187810810   -0.1500
     27 C27        -9.4675    0.4245   55.5863 C.3     1  ZINC000187810810    0.1300
     28 H28        -9.6377   -2.3743   58.1199 H       1  ZINC000187810810    0.0900
     29 H29        -8.6445   -1.2837   59.1161 H       1  ZINC000187810810    0.0600
     30 H30        -9.1756   -2.8510   59.7714 H       1  ZINC000187810810    0.0700
     31 H31       -11.5812   -3.2173   60.3387 H       1  ZINC000187810810    0.0700
     32 H32       -12.7637   -1.9109   60.0876 H       1  ZINC000187810810    0.0600
     33 H33       -12.0432   -2.7405   58.6872 H       1  ZINC000187810810    0.0900
     34 H34        -9.6558   -0.1191   61.0817 H       1  ZINC000187810810    0.0700
     35 H35       -11.3695   -0.3802   61.4858 H       1  ZINC000187810810    0.0700
     36 H36       -10.1869   -1.6866   61.7370 H       1  ZINC000187810810    0.0800
     37 H37        -9.6445    1.5207   58.8372 H       1  ZINC000187810810    0.1000
     38 H38        -8.1218    1.2760   57.9434 H       1  ZINC000187810810    0.0700
     39 H39       -10.3989    3.1646   57.1864 H       1  ZINC000187810810    0.0900
     40 H40        -8.7797    3.6299   57.7623 H       1  ZINC000187810810    0.0900
     41 H41        -8.3660    4.9377   55.6877 H       1  ZINC000187810810    0.0600
     42 H42        -8.5713    4.1739   54.0930 H       1  ZINC000187810810    0.0800
     43 H43        -9.9943    4.5142   55.1066 H       1  ZINC000187810810    0.0700
     44 H44        -7.1319    1.6204   55.3157 H       1  ZINC000187810810    0.4000
     45 H45        -5.1614    1.9543   58.4207 H       1  ZINC000187810810    0.1400
     46 H46        -2.7961    1.2792   58.4336 H       1  ZINC000187810810    0.1400
     47 H47        -1.3774    1.7138   56.4717 H       1  ZINC000187810810    0.1400
     48 H48        -2.3136    2.8248   54.4863 H       1  ZINC000187810810    0.1500
     49 H49       -10.6830    2.1018   54.9675 H       1  ZINC000187810810    0.0800
     50 H50        -9.2705    1.7934   53.9281 H       1  ZINC000187810810    0.1000
     51 H51        -8.4309    0.1007   55.4928 H       1  ZINC000187810810    0.0700
     52 H52       -10.1214   -0.2851   55.0793 H       1  ZINC000187810810    0.1000
@<TRIPOS>BOND
     1     1     2    1
     2     1    28    1
     3     1    29    1
     4     1    30    1
     5     2     3    1
     6     2     4    1
     7     2     5    1
     8     3    31    1
     9     3    32    1
    10     3    33    1
    11     4    34    1
    12     4    35    1
    13     4    36    1
    14     5     6    1
    15     6     7    2
    16     6     8   am
    17     8    27    1
    18     8     9    1
    19     9    10    1
    20     9    37    1
    21     9    38    1
    22    10    11    1
    23    10    39    1
    24    10    40    1
    25    11    12    1
    26    11    13    1
    27    11    26    1
    28    12    41    1
    29    12    42    1
    30    12    43    1
    31    13    14   am
    32    13    44    1
    33    14    15    2
    34    14    16    1
    35    16    21   ar
    36    16    17   ar
    37    17    18   ar
    38    17    45    1
    39    18    19   ar
    40    18    46    1
    41    19    20   ar
    42    19    47    1
    43    20    21   ar
    44    20    48    1
    45    21    22    1
    46    22    23    1
    47    22    24    1
    48    22    25    1
    49    26    27    1
    50    26    49    1
    51    26    50    1
    52    27    51    1
    53    27    52    1
@<TRIPOS>SUBSTRUCTURE
     1 ZINC000187810810        1 TEMP              0 ****  ****    0 ROOT


##########                                Name:    ZINC000516003207
##########                DOCK_Rotatable_Bonds:                   5
##########                         Heavy_Atoms:                  24
##########                    Molecular_Weight:             342.462
##########                DOCK_Rotatable_Bonds:                   5
##########                       Formal_Charge:          -0.0200001
##########                     HBond_Acceptors:                   5
##########                        HBond_Donors:                   1
##########                         Heavy_Atoms:                  24
##########                          Grid_Score:          -29.002859
##########                     Grid_vdw_energy:          -29.186964
##########                      Grid_es_energy:            0.184106
##########           Internal_energy_repulsive:            9.937586

@<TRIPOS>MOLECULE
ZINC000516003207
 46 49 1 0 0
SMALL
USER_CHARGES


@<TRIPOS>ATOM
      1 C1        -13.4607   -1.5889   51.3611 C.3     1  ZINC000516003207    0.0300
      2 O2        -13.5894   -1.6053   52.7842 O.3     1  ZINC000516003207   -0.3600
      3 C3        -12.8328   -2.6348   53.4243 C.3     1  ZINC000516003207    0.0900
      4 H4        -12.7244   -3.5270   52.8076 H       1  ZINC000516003207    0.0800
      5 C5        -11.5084   -2.1402   54.0336 C.3     1  ZINC000516003207   -0.1700
      6 C6        -12.2927   -1.8618   55.3288 C.3     1  ZINC000516003207    0.1500
      7 H7        -12.7179   -0.8594   55.3759 H       1  ZINC000516003207    0.1200
      8 N8        -11.5664   -2.2304   56.5467 N.am    1  ZINC000516003207   -0.7200
      9 C9        -11.5467   -1.3897   57.5999 C.2     1  ZINC000516003207    0.5600
     10 O10       -12.1327   -0.3265   57.5400 O.2     1  ZINC000516003207   -0.5300
     11 C11       -10.8123   -1.7608   58.8285 C.ar    1  ZINC000516003207   -0.1400
     12 C12       -10.1685   -2.9969   58.9125 C.ar    1  ZINC000516003207   -0.0800
     13 C13        -9.4831   -3.3440   60.0597 C.ar    1  ZINC000516003207   -0.1200
     14 C14        -9.4294   -2.4723   61.1295 C.ar    1  ZINC000516003207   -0.0800
     15 C15       -10.0680   -1.2344   61.0578 C.ar    1  ZINC000516003207   -0.0300
     16 C16       -10.0087   -0.3000   62.2086 C.2     1  ZINC000516003207    0.1100
     17 C17       -10.6190    0.9022   62.2097 C.2     1  ZINC000516003207   -0.2600
     18 S18       -10.2923    1.6732   63.7597 S.3     1  ZINC000516003207    0.1400
     19 C19        -9.3749    0.3188   64.2548 C.2     1  ZINC000516003207    0.0600
     20 C20        -8.6891    0.1873   65.5903 C.3     1  ZINC000516003207   -0.0800
     21 N21        -9.3560   -0.5760   63.3284 N.2     1  ZINC000516003207   -0.4700
     22 C22       -10.7561   -0.8752   59.9035 C.ar    1  ZINC000516003207   -0.0300
     23 C23       -13.2846   -2.9291   54.8551 C.3     1  ZINC000516003207   -0.1100
     24 C24       -14.7610   -2.8664   55.2483 C.3     1  ZINC000516003207   -0.1200
     25 C25       -14.7628   -4.4028   55.1502 C.3     1  ZINC000516003207   -0.1400
     26 C26       -13.2483   -4.3491   55.4211 C.3     1  ZINC000516003207   -0.1200
     27 H27       -13.8036   -2.5402   50.9542 H       1  ZINC000516003207    0.0400
     28 H28       -14.0648   -0.7795   50.9509 H       1  ZINC000516003207    0.0900
     29 H29       -12.4157   -1.4343   51.0925 H       1  ZINC000516003207    0.0400
     30 H30       -10.7573   -2.9232   54.1385 H       1  ZINC000516003207    0.0900
     31 H31       -11.1187   -1.2403   53.5579 H       1  ZINC000516003207    0.0800
     32 H32       -11.0999   -3.0795   56.5950 H       1  ZINC000516003207    0.4000
     33 H33       -10.2070   -3.6826   58.0791 H       1  ZINC000516003207    0.1300
     34 H34        -8.9870   -4.3015   60.1207 H       1  ZINC000516003207    0.1400
     35 H35        -8.8919   -2.7500   62.0242 H       1  ZINC000516003207    0.1300
     36 H36       -11.2040    1.3188   61.4031 H       1  ZINC000516003207    0.1800
     37 H37        -8.8704    1.0847   66.1817 H       1  ZINC000516003207    0.0800
     38 H38        -9.0840   -0.6812   66.1175 H       1  ZINC000516003207    0.0900
     39 H39        -7.6170    0.0632   65.4376 H       1  ZINC000516003207    0.0900
     40 H40       -11.2521    0.0822   59.8436 H       1  ZINC000516003207    0.1500
     41 H41       -14.9292   -2.4923   56.2583 H       1  ZINC000516003207    0.0800
     42 H42       -15.3916   -2.3797   54.5043 H       1  ZINC000516003207    0.0800
     43 H43       -15.3306   -4.8896   55.9430 H       1  ZINC000516003207    0.0700
     44 H44       -15.0153   -4.7760   54.1576 H       1  ZINC000516003207    0.0800
     45 H45       -12.6705   -5.0469   54.8150 H       1  ZINC000516003207    0.0700
     46 H46       -12.9914   -4.3918   56.4795 H       1  ZINC000516003207    0.0900
@<TRIPOS>BOND
     1     1     2    1
     2     1    27    1
     3     1    28    1
     4     1    29    1
     5     2     3    1
     6     3     4    1
     7     3    23    1
     8     3     5    1
     9     5     6    1
    10     5    30    1
    11     5    31    1
    12     6     7    1
    13     6     8    1
    14     6    23    1
    15     8     9   am
    16     8    32    1
    17     9    10    2
    18     9    11    1
    19    11    22   ar
    20    11    12   ar
    21    12    13   ar
    22    12    33    1
    23    13    14   ar
    24    13    34    1
    25    14    15   ar
    26    14    35    1
    27    15    16    1
    28    15    22   ar
    29    16    21    1
    30    16    17    2
    31    17    18    1
    32    17    36    1
    33    18    19    1
    34    19    20    1
    35    19    21    2
    36    20    37    1
    37    20    38    1
    38    20    39    1
    39    22    40    1
    40    23    26    1
    41    23    24    1
    42    24    25    1
    43    24    41    1
    44    24    42    1
    45    25    26    1
    46    25    43    1
    47    25    44    1
    48    26    45    1
    49    26    46    1
@<TRIPOS>SUBSTRUCTURE
     1 ZINC000516003207        1 TEMP              0 ****  ****    0 ROOT


##########                                Name:    ZINC000566738344
##########                DOCK_Rotatable_Bonds:                   5
##########                         Heavy_Atoms:                  23
##########                    Molecular_Weight:             352.478
##########                DOCK_Rotatable_Bonds:                   5
##########                       Formal_Charge:           0.0100005
##########                     HBond_Acceptors:                   7
##########                        HBond_Donors:                   0
##########                         Heavy_Atoms:                  23
##########                          Grid_Score:          -28.986151
##########                     Grid_vdw_energy:          -28.483620
##########                      Grid_es_energy:           -0.502531
##########           Internal_energy_repulsive:           19.191856

@<TRIPOS>MOLECULE
ZINC000566738344
 43 44 1 0 0
SMALL
USER_CHARGES


@<TRIPOS>ATOM
      1 C1        -10.8229    1.6981   64.7300 C.3     1  ZINC000566738344   -0.1300
      2 C2        -10.5051    0.6635   63.6814 C.ar    1  ZINC000566738344   -0.0100
      3 C3        -11.1594    0.6860   62.4712 C.ar    1  ZINC000566738344   -0.1000
      4 C4        -10.8667   -0.2701   61.5018 C.ar    1  ZINC000566738344   -0.0500
      5 S5        -11.7073   -0.2382   59.9536 S.3     1  ZINC000566738344   -0.0300
      6 C6        -12.6559   -1.7844   59.9723 C.3     1  ZINC000566738344   -0.1200
      7 H7        -11.9915   -2.6155   60.2086 H       1  ZINC000566738344    0.1200
      8 C8        -13.7567   -1.6946   61.0309 C.3     1  ZINC000566738344   -0.1300
      9 C9        -13.2782   -2.0082   58.6181 C.2     1  ZINC000566738344    0.5200
     10 O10       -14.3796   -1.5622   58.3757 O.2     1  ZINC000566738344   -0.5000
     11 N11       -12.6108   -2.7041   57.6765 N.am    1  ZINC000566738344   -0.6000
     12 C12       -11.2811   -3.2445   57.9699 C.3     1  ZINC000566738344    0.0600
     13 C13       -13.2150   -2.9203   56.3595 C.3     1  ZINC000566738344    0.1500
     14 H14       -13.5057   -1.9624   55.9281 H       1  ZINC000566738344    0.1300
     15 C15       -12.2029   -3.6186   55.4343 C.3     1  ZINC000566738344   -0.1300
     16 C16       -12.9982   -4.1091   54.1969 C.3     1  ZINC000566738344   -0.5900
     17 S17       -14.5277   -4.7843   54.9479 S.o2    1  ZINC000566738344    2.4000
     18 O18       -15.6511   -4.3669   54.1844 O.2     1  ZINC000566738344   -0.9300
     19 O19       -14.3413   -6.1630   55.2372 O.2     1  ZINC000566738344   -0.9300
     20 C20       -14.4565   -3.8232   56.5006 C.3     1  ZINC000566738344   -0.6200
     21 C21        -9.9110   -1.2510   61.7533 C.ar    1  ZINC000566738344   -0.1400
     22 C22        -9.2530   -1.2789   62.9617 C.ar    1  ZINC000566738344   -0.0400
     23 C23        -9.5408   -0.3172   63.9351 C.ar    1  ZINC000566738344   -0.0400
     24 C24        -8.8579   -0.3434   65.1936 C.1     1  ZINC000566738344    0.2500
     25 N25        -8.3163   -0.3641   66.1920 N.1     1  ZINC000566738344   -0.4100
     26 H26       -10.1725    2.5625   64.5963 H       1  ZINC000566738344    0.0800
     27 H27       -11.8633    2.0076   64.6315 H       1  ZINC000566738344    0.0800
     28 H28       -10.6626    1.2726   65.7206 H       1  ZINC000566738344    0.0700
     29 H29       -11.9011    1.4457   62.2731 H       1  ZINC000566738344    0.1400
     30 H30       -14.4710   -0.9214   60.7477 H       1  ZINC000566738344    0.0800
     31 H31       -14.2696   -2.6537   61.1041 H       1  ZINC000566738344    0.0800
     32 H32       -13.3141   -1.4448   61.9951 H       1  ZINC000566738344    0.0900
     33 H33       -11.3798   -4.2488   58.3821 H       1  ZINC000566738344    0.0700
     34 H34       -10.6946   -3.2845   57.0520 H       1  ZINC000566738344    0.0800
     35 H35       -10.7795   -2.6023   58.6938 H       1  ZINC000566738344    0.0800
     36 H36       -11.4306   -2.9137   55.1262 H       1  ZINC000566738344    0.1100
     37 H37       -11.7511   -4.4671   55.9481 H       1  ZINC000566738344    0.0900
     38 H38       -13.2286   -3.2778   53.5307 H       1  ZINC000566738344    0.1400
     39 H39       -12.4495   -4.8890   53.6687 H       1  ZINC000566738344    0.1400
     40 H40       -14.3453   -4.4914   57.3546 H       1  ZINC000566738344    0.1400
     41 H41       -15.3537   -3.2139   56.6101 H       1  ZINC000566738344    0.1500
     42 H42        -9.6859   -1.9908   60.9993 H       1  ZINC000566738344    0.1200
     43 H43        -8.5121   -2.0401   63.1563 H       1  ZINC000566738344    0.1400
@<TRIPOS>BOND
     1     1     2    1
     2     1    26    1
     3     1    27    1
     4     1    28    1
     5     2    23   ar
     6     2     3   ar
     7     3     4   ar
     8     3    29    1
     9     4     5    1
    10     4    21   ar
    11     5     6    1
    12     6     7    1
    13     6     8    1
    14     6     9    1
    15     8    30    1
    16     8    31    1
    17     8    32    1
    18     9    10    2
    19     9    11   am
    20    11    12    1
    21    11    13    1
    22    12    33    1
    23    12    34    1
    24    12    35    1
    25    13    14    1
    26    13    20    1
    27    13    15    1
    28    15    16    1
    29    15    36    1
    30    15    37    1
    31    16    17    1
    32    16    38    1
    33    16    39    1
    34    17    18    2
    35    17    19    2
    36    17    20    1
    37    20    40    1
    38    20    41    1
    39    21    22   ar
    40    21    42    1
    41    22    23   ar
    42    22    43    1
    43    23    24    1
    44    24    25    3
@<TRIPOS>SUBSTRUCTURE
     1 ZINC000566738344        1 TEMP              0 ****  ****    0 ROOT


##########                                Name:    ZINC000478980774
##########                DOCK_Rotatable_Bonds:                   4
##########                         Heavy_Atoms:                  26
##########                    Molecular_Weight:             401.818
##########                DOCK_Rotatable_Bonds:                   4
##########                       Formal_Charge:          -0.0100001
##########                     HBond_Acceptors:                   9
##########                        HBond_Donors:                   1
##########                         Heavy_Atoms:                  26
##########                          Grid_Score:          -28.801609
##########                     Grid_vdw_energy:          -27.925665
##########                      Grid_es_energy:           -0.875945
##########           Internal_energy_repulsive:            7.738888

@<TRIPOS>MOLECULE
ZINC000478980774
 40 42 1 0 0
SMALL
USER_CHARGES


@<TRIPOS>ATOM
      1 C1        -11.3047    1.5091   60.7932 C.3     1  ZINC000478980774   -0.1400
      2 C2        -12.4183    0.8593   61.6168 C.3     1  ZINC000478980774   -0.4600
      3 H3        -13.1297    1.6226   61.9321 H       1  ZINC000478980774    0.1500
      4 C4        -13.1275   -0.1720   60.7774 C.2     1  ZINC000478980774    0.5400
      5 O5        -14.1238    0.1324   60.1561 O.2     1  ZINC000478980774   -0.5000
      6 N6        -12.6548   -1.4328   60.7172 N.am    1  ZINC000478980774   -0.6600
      7 C7        -13.3140   -2.3915   59.9370 C.ar    1  ZINC000478980774    0.1600
      8 C8        -14.5305   -2.9113   60.3571 C.ar    1  ZINC000478980774   -0.1200
      9 C9        -15.1819   -3.8577   59.5886 C.ar    1  ZINC000478980774   -0.0600
     10 C10       -14.6228   -4.2902   58.3974 C.ar    1  ZINC000478980774    0.0100
     11 O11       -15.0548   -5.1982   57.4729 O.3     1  ZINC000478980774   -0.2900
     12 C12       -14.2906   -4.9281   56.2829 C.3     1  ZINC000478980774    0.5700
     13 F13       -14.0261   -6.1138   55.5889 F       1  ZINC000478980774   -0.1100
     14 F14       -14.9655   -4.0193   55.4610 F       1  ZINC000478980774   -0.1500
     15 O15       -13.0697   -4.3520   56.7836 O.3     1  ZINC000478980774   -0.2800
     16 C16       -13.4019   -3.7701   57.9729 C.ar    1  ZINC000478980774    0.0500
     17 C17       -12.7531   -2.8180   58.7404 C.ar    1  ZINC000478980774   -0.0900
     18 S18       -11.7014    0.0598   63.0789 S.o     1  ZINC000478980774    1.3000
     19 O19       -10.7982   -0.9570   62.6676 O.2     1  ZINC000478980774   -0.7800
     20 C20       -10.7772    1.4065   63.8681 C.3     1  ZINC000478980774   -0.4300
     21 C21       -10.1120    0.8933   65.1192 C.ar    1  ZINC000478980774   -0.0600
     22 C22        -8.8278    0.3862   65.0610 C.ar    1  ZINC000478980774   -0.1100
     23 C23        -8.2174   -0.0848   66.2087 C.ar    1  ZINC000478980774   -0.1100
     24 C24        -8.8914   -0.0492   67.4149 C.ar    1  ZINC000478980774   -0.1100
     25 C25       -10.1761    0.4578   67.4744 C.ar    1  ZINC000478980774   -0.1100
     26 C26       -10.7850    0.9348   66.3276 C.ar    1  ZINC000478980774   -0.0300
     27 Cl27      -12.3983    1.5716   66.4016 Cl      1  ZINC000478980774   -0.0600
     28 H28       -10.7918    2.2550   61.4003 H       1  ZINC000478980774    0.0800
     29 H29       -10.5934    0.7457   60.4778 H       1  ZINC000478980774    0.0700
     30 H30       -11.7354    1.9893   59.9146 H       1  ZINC000478980774    0.0700
     31 H31       -11.8582   -1.6763   61.2142 H       1  ZINC000478980774    0.4200
     32 H32       -14.9685   -2.5760   61.2856 H       1  ZINC000478980774    0.1500
     33 H33       -16.1281   -4.2607   59.9177 H       1  ZINC000478980774    0.1500
     34 H34       -11.8091   -2.4100   58.4108 H       1  ZINC000478980774    0.1600
     35 H35       -10.0184    1.7786   63.1797 H       1  ZINC000478980774    0.1100
     36 H36       -11.4616    2.2146   64.1259 H       1  ZINC000478980774    0.1300
     37 H37        -8.3009    0.3576   64.1186 H       1  ZINC000478980774    0.1400
     38 H38        -7.2137   -0.4810   66.1627 H       1  ZINC000478980774    0.1300
     39 H39        -8.4145   -0.4179   68.3109 H       1  ZINC000478980774    0.1300
     40 H40       -10.7026    0.4855   68.4170 H       1  ZINC000478980774    0.1300
@<TRIPOS>BOND
     1     1     2    1
     2     1    28    1
     3     1    29    1
     4     1    30    1
     5     2     3    1
     6     2     4    1
     7     2    18    1
     8     4     5    2
     9     4     6   am
    10     6     7    1
    11     6    31    1
    12     7    17   ar
    13     7     8   ar
    14     8     9   ar
    15     8    32    1
    16     9    10   ar
    17     9    33    1
    18    10    16   ar
    19    10    11    1
    20    11    12    1
    21    12    13    1
    22    12    14    1
    23    12    15    1
    24    15    16    1
    25    16    17   ar
    26    17    34    1
    27    18    19    2
    28    18    20    1
    29    20    21    1
    30    20    35    1
    31    20    36    1
    32    21    26   ar
    33    21    22   ar
    34    22    23   ar
    35    22    37    1
    36    23    24   ar
    37    23    38    1
    38    24    25   ar
    39    24    39    1
    40    25    26   ar
    41    25    40    1
    42    26    27    1
@<TRIPOS>SUBSTRUCTURE
     1 ZINC000478980774        1 TEMP              0 ****  ****    0 ROOT


##########                                Name:    ZINC001082278299
##########                DOCK_Rotatable_Bonds:                   9
##########                         Heavy_Atoms:                  25
##########                    Molecular_Weight:              346.47
##########                DOCK_Rotatable_Bonds:                   9
##########                       Formal_Charge:           0.0200001
##########                     HBond_Acceptors:                   5
##########                        HBond_Donors:                   1
##########                         Heavy_Atoms:                  25
##########                          Grid_Score:          -28.696318
##########                     Grid_vdw_energy:          -27.862610
##########                      Grid_es_energy:           -0.833707
##########           Internal_energy_repulsive:           86.734528

@<TRIPOS>MOLECULE
ZINC001082278299
 55 57 1 0 0
SMALL
USER_CHARGES


@<TRIPOS>ATOM
      1 C1        -16.6366   -0.6851   62.8715 C.3     1  ZINC001082278299   -0.1300
      2 C2        -15.5081    0.0681   63.5272 C.2     1  ZINC001082278299    0.0000
      3 C3        -14.2633   -0.0794   63.0828 C.2     1  ZINC001082278299   -0.2300
      4 C4        -13.9879   -0.9778   61.9511 C.2     1  ZINC001082278299    0.5400
      5 O5        -14.2958   -2.1524   62.0183 O.2     1  ZINC001082278299   -0.5300
      6 N6        -13.3943   -0.4993   60.8397 N.am    1  ZINC001082278299   -0.7400
      7 C7        -13.1184   -1.3946   59.7134 C.3     1  ZINC001082278299    0.1300
      8 C8        -11.9850   -2.3514   60.0885 C.3     1  ZINC001082278299    0.1400
      9 H9        -12.3237   -3.0302   60.8712 H       1  ZINC001082278299    0.0800
     10 C10       -10.7804   -1.5491   60.5903 C.3     1  ZINC001082278299   -0.1300
     11 C11        -9.6046   -2.4986   60.8313 C.3     1  ZINC001082278299   -0.1200
     12 C12        -9.2179   -3.1785   59.5160 C.3     1  ZINC001082278299   -0.1400
     13 C13       -10.4047   -3.9995   59.0020 C.3     1  ZINC001082278299    0.1100
     14 N14       -11.5820   -3.1251   58.9061 N.am    1  ZINC001082278299   -0.6100
     15 C15       -12.2754   -3.0309   57.7543 C.2     1  ZINC001082278299    0.5100
     16 O16       -13.2454   -2.3059   57.6879 O.2     1  ZINC001082278299   -0.5100
     17 C17       -11.8457   -3.8267   56.5488 C.3     1  ZINC001082278299   -0.1100
     18 C18       -12.9157   -3.7523   55.4903 C.2     1  ZINC001082278299   -0.0900
     19 C19       -14.0579   -4.3311   55.7143 C.2     1  ZINC001082278299   -0.1800
     20 C20       -15.1848   -4.3227   54.7209 C.3     1  ZINC001082278299    0.0900
     21 O21       -14.9544   -3.3250   53.7241 O.3     1  ZINC001082278299   -0.3800
     22 C22       -13.6455   -3.4024   53.1459 C.3     1  ZINC001082278299    0.0600
     23 C23       -12.6236   -3.0063   54.2177 C.3     1  ZINC001082278299   -0.1100
     24 C24       -15.7901    0.9886   64.6866 C.3     1  ZINC001082278299   -0.1200
     25 C25       -15.9924    0.3504   66.0624 C.3     1  ZINC001082278299   -0.1900
     26 C26       -14.7081    1.1250   65.7598 C.3     1  ZINC001082278299   -0.1500
     27 H27       -16.7677   -1.6471   63.3671 H       1  ZINC001082278299    0.0800
     28 H28       -17.5562   -0.1059   62.9535 H       1  ZINC001082278299    0.0800
     29 H29       -16.4020   -0.8475   61.8194 H       1  ZINC001082278299    0.0700
     30 H30       -13.4546    0.4606   63.5529 H       1  ZINC001082278299    0.1300
     31 H31       -13.1497    0.4377   60.7858 H       1  ZINC001082278299    0.3900
     32 H32       -14.0147   -1.9681   59.4771 H       1  ZINC001082278299    0.0900
     33 H33       -12.8243   -0.8057   58.8447 H       1  ZINC001082278299    0.0800
     34 H34       -10.5010   -0.8064   59.8429 H       1  ZINC001082278299    0.0700
     35 H35       -11.0401   -1.0476   61.5226 H       1  ZINC001082278299    0.0800
     36 H36        -8.7537   -1.9335   61.2120 H       1  ZINC001082278299    0.0700
     37 H37        -9.8929   -3.2558   61.5605 H       1  ZINC001082278299    0.0700
     38 H38        -8.9531   -2.4206   58.7787 H       1  ZINC001082278299    0.0700
     39 H39        -8.3655   -3.8369   59.6837 H       1  ZINC001082278299    0.0800
     40 H40       -10.1696   -4.4052   58.0180 H       1  ZINC001082278299    0.0900
     41 H41       -10.6129   -4.8144   59.6952 H       1  ZINC001082278299    0.0700
     42 H42       -10.9159   -3.4161   56.1551 H       1  ZINC001082278299    0.1000
     43 H43       -11.6907   -4.8666   56.8363 H       1  ZINC001082278299    0.1000
     44 H44       -14.2028   -4.8406   56.6554 H       1  ZINC001082278299    0.1100
     45 H45       -15.2537   -5.3006   54.2443 H       1  ZINC001082278299    0.0600
     46 H46       -16.1203   -4.1080   55.2375 H       1  ZINC001082278299    0.1000
     47 H47       -13.4530   -4.4207   52.8080 H       1  ZINC001082278299    0.0600
     48 H48       -13.5757   -2.7158   52.3022 H       1  ZINC001082278299    0.1000
     49 H49       -12.6833   -1.9328   54.3971 H       1  ZINC001082278299    0.0800
     50 H50       -11.6208   -3.2614   53.8749 H       1  ZINC001082278299    0.0800
     51 H51       -16.3797    1.8746   64.4509 H       1  ZINC001082278299    0.1300
     52 H52       -16.7152    0.8164   66.7320 H       1  ZINC001082278299    0.1000
     53 H53       -15.9215   -0.7353   66.1289 H       1  ZINC001082278299    0.1000
     54 H54       -13.7923    0.5489   65.6271 H       1  ZINC001082278299    0.0900
     55 H55       -14.5860    2.1006   66.2303 H       1  ZINC001082278299    0.1000
@<TRIPOS>BOND
     1     1     2    1
     2     1    27    1
     3     1    28    1
     4     1    29    1
     5     2     3    2
     6     2    24    1
     7     3     4    1
     8     3    30    1
     9     4     5    2
    10     4     6   am
    11     6     7    1
    12     6    31    1
    13     7     8    1
    14     7    32    1
    15     7    33    1
    16     8     9    1
    17     8    14    1
    18     8    10    1
    19    10    11    1
    20    10    34    1
    21    10    35    1
    22    11    12    1
    23    11    36    1
    24    11    37    1
    25    12    13    1
    26    12    38    1
    27    12    39    1
    28    13    14    1
    29    13    40    1
    30    13    41    1
    31    14    15   am
    32    15    16    2
    33    15    17    1
    34    17    18    1
    35    17    42    1
    36    17    43    1
    37    18    23    1
    38    18    19    2
    39    19    20    1
    40    19    44    1
    41    20    21    1
    42    20    45    1
    43    20    46    1
    44    21    22    1
    45    22    23    1
    46    22    47    1
    47    22    48    1
    48    23    49    1
    49    23    50    1
    50    24    26    1
    51    24    25    1
    52    24    51    1
    53    25    26    1
    54    25    52    1
    55    25    53    1
    56    26    54    1
    57    26    55    1
@<TRIPOS>SUBSTRUCTURE
     1 ZINC001082278299        1 TEMP              0 ****  ****    0 ROOT


##########                                Name:      oleObject5.pdb
##########                DOCK_Rotatable_Bonds:                   5
##########                         Heavy_Atoms:                  24
##########                    Molecular_Weight:             323.438
##########                DOCK_Rotatable_Bonds:                   5
##########                       Formal_Charge:         0.000200074
##########                     HBond_Acceptors:                   4
##########                        HBond_Donors:                   2
##########                         Heavy_Atoms:                  24
##########                          Grid_Score:          -28.693508
##########                     Grid_vdw_energy:          -27.844870
##########                      Grid_es_energy:           -0.848638
##########           Internal_energy_repulsive:            8.877490

@<TRIPOS>MOLECULE
oleObject5.pdb
 49 51 1 0 0
SMALL
NO_CHARGES


@<TRIPOS>ATOM
      1 C          -9.5360   -4.0658   59.7270 C.3     1  UNL        -0.0394
      2 C         -10.7642   -3.9763   58.8265 C.ar    1  UNL        -0.0456
      3 C         -11.1238   -5.1203   58.0870 C.ar    1  UNL        -0.0590
      4 C         -12.2280   -5.1017   57.2234 C.ar    1  UNL        -0.0620
      5 C         -12.9837   -3.9311   57.0857 C.ar    1  UNL        -0.0619
      6 C         -12.6345   -2.7852   57.8143 C.ar    1  UNL        -0.0565
      7 C         -11.5327   -2.7899   58.6961 C.ar    1  UNL        -0.0188
      8 C         -11.1886   -1.4922   59.4398 C.3     1  UNL         0.0906
      9 N         -11.2718   -0.3557   58.5055 N.am    1  UNL        -0.3025
     10 C         -10.2284    0.0184   57.6780 C.2     1  UNL         0.2156
     11 O          -9.2290   -0.6672   57.5468 O.2     1  UNL        -0.2774
     12 C         -10.5428    1.2353   56.7871 C.3     1  UNL         0.0382
     13 C          -9.7261    1.2008   55.4675 C.3     1  UNL        -0.0292
     14 C          -8.2429    1.5604   55.7030 C.3     1  UNL        -0.0041
     15 N          -8.1222    2.8782   56.3500 N.4     1  UNL        -0.3167
     16 C          -8.8209    2.9604   57.6450 C.3     1  UNL        -0.0041
     17 C         -10.3199    2.5911   57.5118 C.3     1  UNL        -0.0292
     18 C         -12.0613   -1.3021   60.6923 C.ar    1  UNL         0.0681
     19 N         -13.2992   -1.8527   60.6578 N.ar    1  UNL        -0.2587
     20 C         -14.1080   -1.7290   61.7269 C.ar    1  UNL         0.0272
     21 C         -13.7227   -1.0508   62.8923 C.ar    1  UNL        -0.0435
     22 C         -12.4429   -0.4804   62.9449 C.ar    1  UNL        -0.0559
     23 C         -11.5896   -0.6033   61.8320 C.ar    1  UNL        -0.0272
     24 C         -10.1957    0.0087   61.8924 C.3     1  UNL        -0.0379
     25 H          -9.1651   -5.0955   59.8019 H       1  UNL         0.0280
     26 H          -9.7526   -3.7326   60.7479 H       1  UNL         0.0280
     27 H          -8.7142   -3.4574   59.3341 H       1  UNL         0.0280
     28 H         -10.5400   -6.0322   58.1769 H       1  UNL         0.0626
     29 H         -12.4927   -5.9908   56.6583 H       1  UNL         0.0623
     30 H         -13.8360   -3.9092   56.4127 H       1  UNL         0.0623
     31 H         -13.2250   -1.8832   57.6843 H       1  UNL         0.0627
     32 H         -10.1528   -1.5347   59.7894 H       1  UNL         0.0624
     33 H         -12.2037   -0.1091   58.1986 H       1  UNL         0.1504
     34 H         -11.6078    1.1627   56.5310 H       1  UNL         0.0402
     35 H         -10.1563    1.9230   54.7618 H       1  UNL         0.0288
     36 H          -9.7990    0.2171   54.9872 H       1  UNL         0.0288
     37 H          -7.7128    1.5693   54.7423 H       1  UNL         0.0428
     38 H          -7.7776    0.7924   56.3347 H       1  UNL         0.0428
     39 H          -8.5028    3.5873   55.7242 H       1  UNL         0.1222
     40 H          -8.7322    3.9771   58.0480 H       1  UNL         0.0428
     41 H          -8.3385    2.2823   58.3599 H       1  UNL         0.0428
     42 H         -10.8224    3.3822   56.9404 H       1  UNL         0.0288
     43 H         -10.7914    2.5742   58.5028 H       1  UNL         0.0288
     44 H         -15.0928   -2.1873   61.6459 H       1  UNL         0.0840
     45 H         -14.4011   -0.9709   63.7365 H       1  UNL         0.0639
     46 H         -12.1200    0.0474   63.8379 H       1  UNL         0.0627
     47 H         -10.0138    0.5058   62.8534 H       1  UNL         0.0280
     48 H         -10.0596    0.7614   61.1063 H       1  UNL         0.0280
     49 H          -9.4222   -0.7595   61.7727 H       1  UNL         0.0280
@<TRIPOS>BOND
     1     1     2    1
     2     1    25    1
     3     1    26    1
     4     1    27    1
     5     2     3   ar
     6     2     7   ar
     7     3     4   ar
     8     3    28    1
     9     4     5   ar
    10     4    29    1
    11     5     6   ar
    12     5    30    1
    13     6     7   ar
    14     6    31    1
    15     7     8    1
    16     8     9    1
    17     8    18    1
    18     8    32    1
    19     9    10   am
    20     9    33    1
    21    10    11    2
    22    10    12    1
    23    12    13    1
    24    12    17    1
    25    12    34    1
    26    13    14    1
    27    13    35    1
    28    13    36    1
    29    14    15    1
    30    14    37    1
    31    14    38    1
    32    15    16    1
    33    15    39    1
    34    16    17    1
    35    16    40    1
    36    16    41    1
    37    17    42    1
    38    17    43    1
    39    18    19   ar
    40    18    23   ar
    41    19    20   ar
    42    20    21   ar
    43    20    44    1
    44    21    22   ar
    45    21    45    1
    46    22    23   ar
    47    22    46    1
    48    23    24    1
    49    24    47    1
    50    24    48    1
    51    24    49    1
@<TRIPOS>SUBSTRUCTURE
     1 UNL         1 TEMP              0 ****  ****    0 ROOT


##########                                Name:    ZINC001625935330
##########                DOCK_Rotatable_Bonds:                   5
##########                         Heavy_Atoms:                  25
##########                    Molecular_Weight:             327.385
##########                DOCK_Rotatable_Bonds:                   5
##########                       Formal_Charge:           0.0199995
##########                     HBond_Acceptors:                   4
##########                        HBond_Donors:                   1
##########                         Heavy_Atoms:                  25
##########                          Grid_Score:          -28.662605
##########                     Grid_vdw_energy:          -27.470015
##########                      Grid_es_energy:           -1.192590
##########           Internal_energy_repulsive:            9.872204

@<TRIPOS>MOLECULE
ZINC001625935330
 42 44 1 0 0
SMALL
USER_CHARGES


@<TRIPOS>ATOM
      1 C1         -9.7212   -3.7818   59.9628 C.3     1  ZINC001625935330   -0.1600
      2 C2        -10.4628   -2.7561   59.1032 C.3     1  ZINC001625935330    0.1800
      3 H3         -9.7664   -2.3009   58.3989 H       1  ZINC001625935330    0.1000
      4 N4        -11.5376   -3.4237   58.3647 N.am    1  ZINC001625935330   -0.7100
      5 C5        -11.9299   -2.9460   57.1671 C.2     1  ZINC001625935330    0.5800
      6 O6        -11.3933   -1.9607   56.7004 O.2     1  ZINC001625935330   -0.5300
      7 C7        -13.0158   -3.6223   56.4193 C.ar    1  ZINC001625935330    0.0800
      8 C8        -13.4408   -3.1019   55.2019 C.ar    1  ZINC001625935330   -0.1000
      9 C9        -14.4658   -3.7527   54.5095 C.ar    1  ZINC001625935330    0.0000
     10 C10       -14.9525   -3.2353   53.2069 C.ar    1  ZINC001625935330   -0.0600
     11 C11       -16.2169   -3.5911   52.7414 C.ar    1  ZINC001625935330   -0.1000
     12 C12       -16.6647   -3.1064   51.5293 C.ar    1  ZINC001625935330   -0.1200
     13 C13       -15.8611   -2.2690   50.7768 C.ar    1  ZINC001625935330   -0.1100
     14 C14       -14.6050   -1.9125   51.2340 C.ar    1  ZINC001625935330   -0.1200
     15 C15       -14.1492   -2.3870   52.4471 C.ar    1  ZINC001625935330   -0.1000
     16 C16       -15.0197   -4.9032   55.0760 C.ar    1  ZINC001625935330   -0.1400
     17 C17       -14.5394   -5.3556   56.2921 C.ar    1  ZINC001625935330    0.1100
     18 N18       -13.5696   -4.7225   56.9160 N.ar    1  ZINC001625935330   -0.4600
     19 C19       -11.0504   -1.6885   59.9897 C.ar    1  ZINC001625935330   -0.0900
     20 C20       -10.4279   -0.4575   60.0932 C.ar    1  ZINC001625935330   -0.0800
     21 C21       -10.9607    0.5284   60.9050 C.ar    1  ZINC001625935330   -0.1100
     22 C22       -12.1178    0.2896   61.6166 C.ar    1  ZINC001625935330   -0.0700
     23 C23       -12.7518   -0.9507   61.5164 C.ar    1  ZINC001625935330   -0.0200
     24 C24       -13.9535   -1.2057   62.2523 C.1     1  ZINC001625935330    0.2500
     25 N25       -14.9069   -1.4080   62.8361 N.1     1  ZINC001625935330   -0.4100
     26 C26       -12.2114   -1.9392   60.6918 C.ar    1  ZINC001625935330   -0.0600
     27 H27        -8.9215   -3.2850   60.5123 H       1  ZINC001625935330    0.0700
     28 H28       -10.4175   -4.2370   60.6670 H       1  ZINC001625935330    0.0600
     29 H29        -9.2962   -4.5539   59.3216 H       1  ZINC001625935330    0.0700
     30 H30       -11.9668   -4.2095   58.7376 H       1  ZINC001625935330    0.4100
     31 H31       -12.9865   -2.2092   54.7980 H       1  ZINC001625935330    0.1500
     32 H32       -16.8450   -4.2452   53.3280 H       1  ZINC001625935330    0.1300
     33 H33       -17.6443   -3.3818   51.1673 H       1  ZINC001625935330    0.1300
     34 H34       -16.2153   -1.8923   49.8286 H       1  ZINC001625935330    0.1300
     35 H35       -13.9816   -1.2587   50.6423 H       1  ZINC001625935330    0.1300
     36 H36       -13.1686   -2.1079   52.8033 H       1  ZINC001625935330    0.1300
     37 H37       -15.8137   -5.4331   54.5708 H       1  ZINC001625935330    0.1400
     38 H38       -14.9647   -6.2445   56.7342 H       1  ZINC001625935330    0.1700
     39 H39        -9.5215   -0.2652   59.5382 H       1  ZINC001625935330    0.1300
     40 H40       -10.4691    1.4870   60.9819 H       1  ZINC001625935330    0.1400
     41 H41       -12.5324    1.0598   62.2501 H       1  ZINC001625935330    0.1400
     42 H42       -12.6967   -2.9005   60.6098 H       1  ZINC001625935330    0.1400
@<TRIPOS>BOND
     1     1     2    1
     2     1    27    1
     3     1    28    1
     4     1    29    1
     5     2     3    1
     6     2     4    1
     7     2    19    1
     8     4     5   am
     9     4    30    1
    10     5     6    2
    11     5     7    1
    12     7    18   ar
    13     7     8   ar
    14     8     9   ar
    15     8    31    1
    16     9    10    1
    17     9    16   ar
    18    10    15   ar
    19    10    11   ar
    20    11    12   ar
    21    11    32    1
    22    12    13   ar
    23    12    33    1
    24    13    14   ar
    25    13    34    1
    26    14    15   ar
    27    14    35    1
    28    15    36    1
    29    16    17   ar
    30    16    37    1
    31    17    18   ar
    32    17    38    1
    33    19    26   ar
    34    19    20   ar
    35    20    21   ar
    36    20    39    1
    37    21    22   ar
    38    21    40    1
    39    22    23   ar
    40    22    41    1
    41    23    24    1
    42    23    26   ar
    43    24    25    3
    44    26    42    1
@<TRIPOS>SUBSTRUCTURE
     1 ZINC001625935330        1 TEMP              0 ****  ****    0 ROOT


##########                                Name:    ZINC000055987960
##########                DOCK_Rotatable_Bonds:                   6
##########                         Heavy_Atoms:                  28
##########                    Molecular_Weight:             404.868
##########                DOCK_Rotatable_Bonds:                   6
##########                       Formal_Charge:          0.00999941
##########                     HBond_Acceptors:                   7
##########                        HBond_Donors:                   1
##########                         Heavy_Atoms:                  28
##########                          Grid_Score:          -28.659494
##########                     Grid_vdw_energy:          -26.830503
##########                      Grid_es_energy:           -1.828990
##########           Internal_energy_repulsive:           20.060408

@<TRIPOS>MOLECULE
ZINC000055987960
 50 52 1 0 0
SMALL
USER_CHARGES


@<TRIPOS>ATOM
      1 C1        -16.1936    1.3250   49.1469 C.3     1  ZINC000055987960   -0.1800
      2 C2        -15.3242    0.6286   48.0981 C.3     1  ZINC000055987960    0.0700
      3 H3        -15.4176    1.1484   47.1445 H       1  ZINC000055987960    0.1200
      4 C4        -13.8599    0.6494   48.5512 C.3     1  ZINC000055987960    0.0800
      5 N5        -13.7287   -0.2122   49.7368 N.am    1  ZINC000055987960   -0.6100
      6 C6        -13.1226    0.2338   50.8550 C.2     1  ZINC000055987960    0.5700
      7 O7        -12.6744    1.3633   50.8942 O.2     1  ZINC000055987960   -0.5300
      8 C8        -13.0030   -0.6490   52.0318 C.ar    1  ZINC000055987960   -0.1500
      9 C9        -14.1397   -0.9909   52.7691 C.ar    1  ZINC000055987960   -0.0700
     10 C10       -14.0247   -1.8148   53.8661 C.ar    1  ZINC000055987960   -0.1500
     11 C11       -12.7783   -2.3069   54.2408 C.ar    1  ZINC000055987960    0.1700
     12 N12       -12.6655   -3.1415   55.3520 N.am    1  ZINC000055987960   -0.6700
     13 C13       -13.2283   -2.7840   56.5233 C.2     1  ZINC000055987960    0.5200
     14 O14       -13.8330   -1.7363   56.6107 O.2     1  ZINC000055987960   -0.5000
     15 C15       -13.1064   -3.6860   57.7244 C.3     1  ZINC000055987960   -0.1100
     16 C16       -11.8668   -3.3237   58.5010 C.ar    1  ZINC000055987960   -0.1000
     17 C17       -11.8032   -2.1202   59.1817 C.ar    1  ZINC000055987960    0.1300
     18 F18       -12.8524   -1.2696   59.1502 F       1  ZINC000055987960   -0.1300
     19 C19       -10.6636   -1.7886   59.8954 C.ar    1  ZINC000055987960   -0.1500
     20 C20        -9.5909   -2.6591   59.9277 C.ar    1  ZINC000055987960   -0.0700
     21 C21        -9.6544   -3.8612   59.2478 C.ar    1  ZINC000055987960   -0.1200
     22 C22       -10.7940   -4.1963   58.5387 C.ar    1  ZINC000055987960    0.0000
     23 Cl23      -10.8729   -5.7064   57.6859 Cl      1  ZINC000055987960   -0.0500
     24 C24       -11.6446   -1.9684   53.5088 C.ar    1  ZINC000055987960   -0.1200
     25 C25       -11.7534   -1.1492   52.4078 C.ar    1  ZINC000055987960   -0.0500
     26 C26       -14.2791   -1.5751   49.6657 C.3     1  ZINC000055987960    0.0600
     27 C27       -15.7231   -1.4875   49.1584 C.3     1  ZINC000055987960    0.0700
     28 H28       -16.3438   -0.9990   49.9094 H       1  ZINC000055987960    0.0700
     29 C29       -16.2572   -2.8961   48.8911 C.3     1  ZINC000055987960   -0.1500
     30 O30       -15.7520   -0.7270   47.9469 O.3     1  ZINC000055987960   -0.3700
     31 H31       -16.0997    0.8048   50.1002 H       1  ZINC000055987960    0.0600
     32 H32       -15.8657    2.3580   49.2629 H       1  ZINC000055987960    0.0700
     33 H33       -17.2348    1.3082   48.8249 H       1  ZINC000055987960    0.0700
     34 H34       -13.2227    0.2726   47.7511 H       1  ZINC000055987960    0.0800
     35 H35       -13.5683    1.6687   48.8040 H       1  ZINC000055987960    0.1000
     36 H36       -15.1074   -0.6090   52.4791 H       1  ZINC000055987960    0.1400
     37 H37       -14.9028   -2.0792   54.4366 H       1  ZINC000055987960    0.1300
     38 H38       -12.1818   -3.9794   55.2821 H       1  ZINC000055987960    0.4200
     39 H39       -13.9827   -3.5637   58.3610 H       1  ZINC000055987960    0.1200
     40 H40       -13.0386   -4.7228   57.3948 H       1  ZINC000055987960    0.1200
     41 H41       -10.6132   -0.8496   60.4265 H       1  ZINC000055987960    0.1500
     42 H42        -8.7023   -2.4000   60.4841 H       1  ZINC000055987960    0.1500
     43 H43        -8.8154   -4.5407   59.2734 H       1  ZINC000055987960    0.1400
     44 H44       -10.6786   -2.3518   53.8026 H       1  ZINC000055987960    0.1500
     45 H45       -10.8730   -0.8868   51.8400 H       1  ZINC000055987960    0.1300
     46 H46       -13.6841   -2.1759   48.9779 H       1  ZINC000055987960    0.0800
     47 H47       -14.2652   -2.0288   50.6567 H       1  ZINC000055987960    0.1100
     48 H48       -16.2313   -3.4755   49.8140 H       1  ZINC000055987960    0.0700
     49 H49       -17.2838   -2.8329   48.5304 H       1  ZINC000055987960    0.0700
     50 H50       -15.6370   -3.3832   48.1387 H       1  ZINC000055987960    0.0700
@<TRIPOS>BOND
     1     1     2    1
     2     1    31    1
     3     1    32    1
     4     1    33    1
     5     2     3    1
     6     2    30    1
     7     2     4    1
     8     4     5    1
     9     4    34    1
    10     4    35    1
    11     5     6   am
    12     5    26    1
    13     6     7    2
    14     6     8    1
    15     8    25   ar
    16     8     9   ar
    17     9    10   ar
    18     9    36    1
    19    10    11   ar
    20    10    37    1
    21    11    12    1
    22    11    24   ar
    23    12    13   am
    24    12    38    1
    25    13    14    2
    26    13    15    1
    27    15    16    1
    28    15    39    1
    29    15    40    1
    30    16    22   ar
    31    16    17   ar
    32    17    18    1
    33    17    19   ar
    34    19    20   ar
    35    19    41    1
    36    20    21   ar
    37    20    42    1
    38    21    22   ar
    39    21    43    1
    40    22    23    1
    41    24    25   ar
    42    24    44    1
    43    25    45    1
    44    26    27    1
    45    26    46    1
    46    26    47    1
    47    27    28    1
    48    27    29    1
    49    27    30    1
    50    29    48    1
    51    29    49    1
    52    29    50    1
@<TRIPOS>SUBSTRUCTURE
     1 ZINC000055987960        1 TEMP              0 ****  ****    0 ROOT


##########                                Name:    ZINC000550782577
##########                DOCK_Rotatable_Bonds:                   5
##########                         Heavy_Atoms:                  25
##########                    Molecular_Weight:              338.45
##########                DOCK_Rotatable_Bonds:                   5
##########                       Formal_Charge:         -0.00999954
##########                     HBond_Acceptors:                   4
##########                        HBond_Donors:                   0
##########                         Heavy_Atoms:                  25
##########                          Grid_Score:          -28.643276
##########                     Grid_vdw_energy:          -28.612137
##########                      Grid_es_energy:           -0.031139
##########           Internal_energy_repulsive:          159.004730

@<TRIPOS>MOLECULE
ZINC000550782577
 51 53 1 0 0
SMALL
USER_CHARGES


@<TRIPOS>ATOM
      1 C1         -0.1977    0.8194   47.6603 C.3     1  ZINC000550782577    0.0700
      2 N2         -1.4578    1.5666   47.6528 N.am    1  ZINC000550782577   -0.5900
      3 C3         -2.0625    1.8565   46.4838 C.2     1  ZINC000550782577    0.5800
      4 O4         -3.1079    2.4764   46.4775 O.2     1  ZINC000550782577   -0.5400
      5 C5         -1.4538    1.4200   45.2081 C.ar    1  ZINC000550782577    0.0300
      6 C6         -0.2950    2.0438   44.7476 C.ar    1  ZINC000550782577   -0.0600
      7 C7          0.2652    1.6269   43.5531 C.ar    1  ZINC000550782577   -0.1200
      8 C8         -0.3547    0.5948   42.8545 C.ar    1  ZINC000550782577    0.1100
      9 O9          0.1614    0.1547   41.6790 O.3     1  ZINC000550782577   -0.3000
     10 C10         1.3701    0.7707   41.2299 C.3     1  ZINC000550782577    0.1000
     11 C11         2.4423    0.6396   42.3133 C.3     1  ZINC000550782577   -0.2000
     12 C12         1.8498    0.0804   39.9514 C.3     1  ZINC000550782577   -0.1400
     13 C13         1.1122    2.2514   40.9440 C.3     1  ZINC000550782577   -0.2000
     14 C14        -1.5105    0.0187   43.3761 C.ar    1  ZINC000550782577   -0.0100
     15 N15        -2.0138    0.4343   44.5160 N.ar    1  ZINC000550782577   -0.4100
     16 C16        -2.0606    1.9989   48.9162 C.3     1  ZINC000550782577    0.1400
     17 H17        -1.4346    1.6800   49.7495 H       1  ZINC000550782577    0.1100
     18 C18        -2.1966    3.5260   48.9274 C.3     1  ZINC000550782577   -0.1300
     19 C19        -2.5990    3.9637   50.3343 C.3     1  ZINC000550782577   -0.0800
     20 C20        -3.7928    3.1789   50.8117 C.ar    1  ZINC000550782577   -0.0800
     21 C21        -4.5164    3.6891   51.8814 C.ar    1  ZINC000550782577   -0.1200
     22 C22        -5.6168    3.0146   52.3690 C.ar    1  ZINC000550782577   -0.1200
     23 C23        -6.0024    1.8206   51.7891 C.ar    1  ZINC000550782577   -0.1200
     24 C24        -5.2861    1.3131   50.7246 C.ar    1  ZINC000550782577   -0.1200
     25 C25        -4.1805    1.9923   50.2300 C.ar    1  ZINC000550782577   -0.0700
     26 C26        -3.4538    1.3889   49.0566 C.3     1  ZINC000550782577   -0.0900
     27 H27         0.6327    1.5058   47.4946 H       1  ZINC000550782577    0.0600
     28 H28        -0.0740    0.3253   48.6240 H       1  ZINC000550782577    0.0600
     29 H29        -0.2142    0.0712   46.8679 H       1  ZINC000550782577    0.1100
     30 H30         0.1592    2.8421   45.3157 H       1  ZINC000550782577    0.1600
     31 H31         1.1623    2.0917   43.1714 H       1  ZINC000550782577    0.1500
     32 H32         2.9223   -0.3357   42.2335 H       1  ZINC000550782577    0.0700
     33 H33         3.1884    1.4235   42.1829 H       1  ZINC000550782577    0.0800
     34 H34         1.9802    0.7377   43.2957 H       1  ZINC000550782577    0.0800
     35 H35         1.0859    0.1738   39.1796 H       1  ZINC000550782577    0.0700
     36 H36         2.7718    0.5503   39.6090 H       1  ZINC000550782577    0.0800
     37 H37         2.0335   -0.9745   40.1551 H       1  ZINC000550782577    0.0700
     38 H38         0.7749    2.7441   41.8559 H       1  ZINC000550782577    0.0800
     39 H39         2.0331    2.7202   40.5970 H       1  ZINC000550782577    0.0800
     40 H40         0.3450    2.3449   40.1755 H       1  ZINC000550782577    0.0700
     41 H41        -1.9963   -0.7824   42.8390 H       1  ZINC000550782577    0.1900
     42 H42        -1.2431    3.9814   48.6600 H       1  ZINC000550782577    0.0700
     43 H43        -2.9626    3.8316   48.2147 H       1  ZINC000550782577    0.0700
     44 H44        -1.7640    3.7976   51.0150 H       1  ZINC000550782577    0.0800
     45 H45        -2.8475    5.0249   50.3232 H       1  ZINC000550782577    0.0800
     46 H46        -4.2152    4.6215   52.3356 H       1  ZINC000550782577    0.1200
     47 H47        -6.1748    3.4179   53.2011 H       1  ZINC000550782577    0.1200
     48 H48        -6.8611    1.2865   52.1682 H       1  ZINC000550782577    0.1200
     49 H49        -5.5879    0.3800   50.2723 H       1  ZINC000550782577    0.1200
     50 H50        -4.0220    1.5781   48.1459 H       1  ZINC000550782577    0.0800
     51 H51        -3.3622    0.3129   49.2052 H       1  ZINC000550782577    0.0800
@<TRIPOS>BOND
     1     1     2    1
     2     1    27    1
     3     1    28    1
     4     1    29    1
     5     2     3   am
     6     2    16    1
     7     3     4    2
     8     3     5    1
     9     5    15   ar
    10     5     6   ar
    11     6     7   ar
    12     6    30    1
    13     7     8   ar
    14     7    31    1
    15     8     9    1
    16     8    14   ar
    17     9    10    1
    18    10    11    1
    19    10    12    1
    20    10    13    1
    21    11    32    1
    22    11    33    1
    23    11    34    1
    24    12    35    1
    25    12    36    1
    26    12    37    1
    27    13    38    1
    28    13    39    1
    29    13    40    1
    30    14    15   ar
    31    14    41    1
    32    16    17    1
    33    16    26    1
    34    16    18    1
    35    18    19    1
    36    18    42    1
    37    18    43    1
    38    19    20    1
    39    19    44    1
    40    19    45    1
    41    20    25   ar
    42    20    21   ar
    43    21    22   ar
    44    21    46    1
    45    22    23   ar
    46    22    47    1
    47    23    24   ar
    48    23    48    1
    49    24    25   ar
    50    24    49    1
    51    25    26    1
    52    26    50    1
    53    26    51    1
@<TRIPOS>SUBSTRUCTURE
     1 ZINC000550782577        1 TEMP              0 ****  ****    0 ROOT


##########                                Name:    ZINC000176150038
##########                DOCK_Rotatable_Bonds:                   4
##########                         Heavy_Atoms:                  23
##########                    Molecular_Weight:             333.712
##########                DOCK_Rotatable_Bonds:                   4
##########                       Formal_Charge:        -2.23517e-07
##########                     HBond_Acceptors:                  10
##########                        HBond_Donors:                   1
##########                         Heavy_Atoms:                  23
##########                          Grid_Score:          -28.623497
##########                     Grid_vdw_energy:          -27.574430
##########                      Grid_es_energy:           -1.049067
##########           Internal_energy_repulsive:           25.539137

@<TRIPOS>MOLECULE
ZINC000176150038
 32 34 1 0 0
SMALL
USER_CHARGES


@<TRIPOS>ATOM
      1 C1        -12.4991   -0.5939   53.6012 C.3     1  ZINC000176150038   -0.0900
      2 C2        -11.8995   -1.8980   53.1418 C.2     1  ZINC000176150038    0.2600
      3 N3        -11.2391   -2.0990   52.0314 N.2     1  ZINC000176150038   -0.3300
      4 N4        -10.8631   -3.3238   51.9437 N.2     1  ZINC000176150038   -0.0300
      5 N5        -11.2524   -3.9845   52.9804 N.2     1  ZINC000176150038   -0.0700
      6 N6        -11.9396   -3.0748   53.8032 N.pl3   1  ZINC000176150038   -0.3300
      7 C7        -12.5444   -3.3354   55.0422 C.ar    1  ZINC000176150038    0.1400
      8 C8        -13.5816   -4.2539   55.1289 C.ar    1  ZINC000176150038   -0.1000
      9 C9        -14.1784   -4.5124   56.3485 C.ar    1  ZINC000176150038   -0.1100
     10 C10       -13.7442   -3.8570   57.4861 C.ar    1  ZINC000176150038    0.1000
     11 F11       -14.3290   -4.1118   58.6771 F       1  ZINC000176150038   -0.1200
     12 C12       -12.7049   -2.9354   57.4046 C.ar    1  ZINC000176150038    0.1300
     13 N13       -12.2650   -2.2717   58.5554 N.am    1  ZINC000176150038   -0.6500
     14 C14       -11.1556   -2.6935   59.1939 C.2     1  ZINC000176150038    0.5700
     15 O15       -10.5373   -3.6500   58.7704 O.2     1  ZINC000176150038   -0.4800
     16 C16       -10.6893   -1.9901   60.4137 C.ar    1  ZINC000176150038    0.1400
     17 N17        -9.5688   -2.3671   61.0258 N.ar    1  ZINC000176150038   -0.4800
     18 C18        -9.1517   -1.7455   62.1075 C.ar    1  ZINC000176150038    0.3000
     19 N19        -9.8149   -0.7325   62.6304 N.ar    1  ZINC000176150038   -0.4800
     20 C20       -10.9364   -0.2965   62.0834 C.ar    1  ZINC000176150038    0.1700
     21 C21       -11.4152   -0.9172   60.9364 C.ar    1  ZINC000176150038   -0.1000
     22 Cl22      -12.8831   -0.3815   60.1799 Cl      1  ZINC000176150038    0.0100
     23 C23       -12.1020   -2.6794   56.1820 C.ar    1  ZINC000176150038   -0.0800
     24 H24       -11.7636   -0.0424   54.1870 H       1  ZINC000176150038    0.1100
     25 H25       -12.7900   -0.0021   52.7333 H       1  ZINC000176150038    0.1100
     26 H26       -13.3769   -0.7940   54.2155 H       1  ZINC000176150038    0.0900
     27 H27       -13.9231   -4.7670   54.2420 H       1  ZINC000176150038    0.1500
     28 H28       -14.9854   -5.2272   56.4131 H       1  ZINC000176150038    0.1600
     29 H29       -12.7585   -1.5081   58.8934 H       1  ZINC000176150038    0.4300
     30 H30        -8.2390   -2.0748   62.5818 H       1  ZINC000176150038    0.2200
     31 H31       -11.4714    0.5339   62.5201 H       1  ZINC000176150038    0.1900
     32 H32       -11.2951   -1.9646   56.1158 H       1  ZINC000176150038    0.1700
@<TRIPOS>BOND
     1     1     2    1
     2     1    24    1
     3     1    25    1
     4     1    26    1
     5     2     6    1
     6     2     3    2
     7     3     4    1
     8     4     5    2
     9     5     6    1
    10     6     7    1
    11     7    23   ar
    12     7     8   ar
    13     8     9   ar
    14     8    27    1
    15     9    10   ar
    16     9    28    1
    17    10    11    1
    18    10    12   ar
    19    12    13    1
    20    12    23   ar
    21    13    14   am
    22    13    29    1
    23    14    15    2
    24    14    16    1
    25    16    21   ar
    26    16    17   ar
    27    17    18   ar
    28    18    19   ar
    29    18    30    1
    30    19    20   ar
    31    20    21   ar
    32    20    31    1
    33    21    22    1
    34    23    32    1
@<TRIPOS>SUBSTRUCTURE
     1 ZINC000176150038        1 TEMP              0 ****  ****    0 ROOT


##########                                Name:    ZINC000130059363
##########                DOCK_Rotatable_Bonds:                   4
##########                         Heavy_Atoms:                  29
##########                    Molecular_Weight:             389.497
##########                DOCK_Rotatable_Bonds:                   4
##########                       Formal_Charge:          -0.0100003
##########                     HBond_Acceptors:                   5
##########                        HBond_Donors:                   0
##########                         Heavy_Atoms:                  29
##########                          Grid_Score:          -28.570826
##########                     Grid_vdw_energy:          -28.556993
##########                      Grid_es_energy:           -0.013833
##########           Internal_energy_repulsive:           24.804327

@<TRIPOS>MOLECULE
ZINC000130059363
 56 60 1 0 0
SMALL
USER_CHARGES


@<TRIPOS>ATOM
      1 C1        -10.8280   -2.0206   52.8616 C.3     1  ZINC000130059363   -0.1200
      2 C2        -11.7444   -0.8246   52.8911 C.ar    1  ZINC000130059363    0.1900
      3 N3        -12.4222   -0.4976   51.8128 N.ar    1  ZINC000130059363   -0.4800
      4 C4        -13.2416    0.5472   51.7920 C.ar    1  ZINC000130059363    0.2000
      5 C5        -13.9824    0.8714   50.5498 C.ar    1  ZINC000130059363   -0.0600
      6 C6        -14.1671   -0.1038   49.5705 C.ar    1  ZINC000130059363   -0.1000
      7 C7        -14.8580    0.2037   48.4162 C.ar    1  ZINC000130059363   -0.1200
      8 C8        -15.3664    1.4767   48.2294 C.ar    1  ZINC000130059363   -0.1000
      9 C9        -15.1857    2.4485   49.1973 C.ar    1  ZINC000130059363   -0.1300
     10 C10       -14.5020    2.1509   50.3584 C.ar    1  ZINC000130059363   -0.0700
     11 C11       -13.4146    1.3433   52.9241 C.ar    1  ZINC000130059363   -0.1800
     12 C12       -12.7212    1.0344   54.0776 C.ar    1  ZINC000130059363   -0.0400
     13 C13       -11.8692   -0.0784   54.0651 C.ar    1  ZINC000130059363   -0.1900
     14 C14       -11.1060   -0.4507   55.2736 C.2     1  ZINC000130059363    0.5700
     15 O15        -9.9509   -0.0923   55.3974 O.2     1  ZINC000130059363   -0.5200
     16 N16       -11.6900   -1.1877   56.2391 N.am    1  ZINC000130059363   -0.6000
     17 C17       -13.0837   -1.6350   56.1037 C.3     1  ZINC000130059363    0.1000
     18 C18       -13.1217   -3.1571   56.2692 C.3     1  ZINC000130059363   -0.1500
     19 C19       -12.4600   -3.5512   57.5849 C.3     1  ZINC000130059363    0.1500
     20 H20       -12.4688   -4.6388   57.6569 H       1  ZINC000130059363    0.0700
     21 C21       -11.0064   -3.0838   57.6251 C.3     1  ZINC000130059363   -0.1100
     22 H22       -10.4313   -3.5831   56.8453 H       1  ZINC000130059363    0.1000
     23 C23       -10.4336   -3.4320   59.0082 C.3     1  ZINC000130059363   -0.1200
     24 C24       -11.1356   -2.5577   60.0503 C.3     1  ZINC000130059363   -0.1400
     25 C25       -12.6228   -2.6034   59.8485 C.2     1  ZINC000130059363    0.5200
     26 O26       -13.3369   -2.2329   60.7560 O.2     1  ZINC000130059363   -0.5400
     27 N27       -13.1919   -3.0162   58.7222 N.am    1  ZINC000130059363   -0.5700
     28 C28       -14.6525   -2.9588   58.6230 C.3     1  ZINC000130059363    0.0700
     29 C29       -15.3854   -4.2446   58.2352 C.3     1  ZINC000130059363   -0.1800
     30 C30       -15.4624   -3.7239   59.6717 C.3     1  ZINC000130059363   -0.1600
     31 C31       -10.9467   -1.5669   57.4469 C.3     1  ZINC000130059363    0.1100
     32 H32       -11.3547   -2.8914   53.2519 H       1  ZINC000130059363    0.0800
     33 H33       -10.5164   -2.2143   51.8352 H       1  ZINC000130059363    0.0800
     34 H34        -9.9503   -1.8210   53.4763 H       1  ZINC000130059363    0.1000
     35 H35       -13.7701   -1.0978   49.7149 H       1  ZINC000130059363    0.1300
     36 H36       -15.0018   -0.5508   47.6570 H       1  ZINC000130059363    0.1300
     37 H37       -15.9061    1.7129   47.3243 H       1  ZINC000130059363    0.1300
     38 H38       -15.5846    3.4406   49.0458 H       1  ZINC000130059363    0.1300
     39 H39       -14.3615    2.9104   51.1134 H       1  ZINC000130059363    0.1400
     40 H40       -14.0826    2.1914   52.8987 H       1  ZINC000130059363    0.1400
     41 H41       -12.8355    1.6335   54.9689 H       1  ZINC000130059363    0.1400
     42 H42       -13.6959   -1.1666   56.8744 H       1  ZINC000130059363    0.0700
     43 H43       -13.4622   -1.3634   55.1183 H       1  ZINC000130059363    0.0900
     44 H44       -14.1578   -3.4957   56.2691 H       1  ZINC000130059363    0.0900
     45 H45       -12.5889   -3.6249   55.4414 H       1  ZINC000130059363    0.0800
     46 H46       -10.6162   -4.4839   59.2277 H       1  ZINC000130059363    0.0800
     47 H47        -9.3620   -3.2332   59.0232 H       1  ZINC000130059363    0.0900
     48 H48       -10.8953   -2.9228   61.0489 H       1  ZINC000130059363    0.1000
     49 H49       -10.7891   -1.5291   59.9512 H       1  ZINC000130059363    0.1000
     50 H50       -15.0623   -2.0164   58.2598 H       1  ZINC000130059363    0.1100
     51 H51       -16.2776   -4.1482   57.6164 H       1  ZINC000130059363    0.1100
     52 H52       -14.7808   -5.1333   58.0536 H       1  ZINC000130059363    0.1000
     53 H53       -14.9085   -4.2699   60.4353 H       1  ZINC000130059363    0.1000
     54 H54       -16.4052   -3.2849   59.9981 H       1  ZINC000130059363    0.1000
     55 H55        -9.9077   -1.2520   57.3506 H       1  ZINC000130059363    0.1000
     56 H56       -11.3970   -1.0806   58.3123 H       1  ZINC000130059363    0.0700
@<TRIPOS>BOND
     1     1     2    1
     2     1    32    1
     3     1    33    1
     4     1    34    1
     5     2    13   ar
     6     2     3   ar
     7     3     4   ar
     8     4     5    1
     9     4    11   ar
    10     5    10   ar
    11     5     6   ar
    12     6     7   ar
    13     6    35    1
    14     7     8   ar
    15     7    36    1
    16     8     9   ar
    17     8    37    1
    18     9    10   ar
    19     9    38    1
    20    10    39    1
    21    11    12   ar
    22    11    40    1
    23    12    13   ar
    24    12    41    1
    25    13    14    1
    26    14    15    2
    27    14    16   am
    28    16    31    1
    29    16    17    1
    30    17    18    1
    31    17    42    1
    32    17    43    1
    33    18    19    1
    34    18    44    1
    35    18    45    1
    36    19    20    1
    37    19    27    1
    38    19    21    1
    39    21    22    1
    40    21    23    1
    41    21    31    1
    42    23    24    1
    43    23    46    1
    44    23    47    1
    45    24    25    1
    46    24    48    1
    47    24    49    1
    48    25    26    2
    49    25    27   am
    50    27    28    1
    51    28    30    1
    52    28    29    1
    53    28    50    1
    54    29    30    1
    55    29    51    1
    56    29    52    1
    57    30    53    1
    58    30    54    1
    59    31    55    1
    60    31    56    1
@<TRIPOS>SUBSTRUCTURE
     1 ZINC000130059363        1 TEMP              0 ****  ****    0 ROOT


##########                                Name:    ZINC000444542200
##########                DOCK_Rotatable_Bonds:                   8
##########                         Heavy_Atoms:                  28
##########                    Molecular_Weight:             404.337
##########                DOCK_Rotatable_Bonds:                   8
##########                       Formal_Charge:           0.0200001
##########                     HBond_Acceptors:                  10
##########                        HBond_Donors:                   1
##########                         Heavy_Atoms:                  28
##########                          Grid_Score:          -28.507404
##########                     Grid_vdw_energy:          -26.502808
##########                      Grid_es_energy:           -2.004596
##########           Internal_energy_repulsive:           19.338980

@<TRIPOS>MOLECULE
ZINC000444542200
 45 46 1 0 0
SMALL
USER_CHARGES


@<TRIPOS>ATOM
      1 C1         -3.7951    2.3265   57.7312 C.3     1  ZINC000444542200    0.0300
      2 O2         -3.9079    2.9288   56.4402 O.3     1  ZINC000444542200   -0.3100
      3 C3         -5.1496    2.9820   55.8907 C.ar    1  ZINC000444542200    0.1800
      4 C4         -6.2666    2.7473   56.6779 C.ar    1  ZINC000444542200   -0.1700
      5 C5         -7.5349    2.8021   56.1165 C.ar    1  ZINC000444542200    0.2300
      6 N6         -8.6626    2.5658   56.9107 N.am    1  ZINC000444542200   -0.5800
      7 C7         -9.1538    3.6090   57.8144 C.3     1  ZINC000444542200    0.0700
      8 C8         -9.2969    1.3785   56.8440 C.2     1  ZINC000444542200    0.7100
      9 O9         -8.8894    0.5128   56.0938 O.2     1  ZINC000444542200   -0.5500
     10 N10       -10.3830    1.1509   57.6089 N.am    1  ZINC000444542200   -0.7300
     11 C11       -11.0715   -0.1403   57.5378 C.3     1  ZINC000444542200    0.1700
     12 H12       -10.9543   -0.5600   56.5387 H       1  ZINC000444542200    0.1500
     13 C13       -10.4767   -1.0832   58.5518 C.ar    1  ZINC000444542200   -0.1300
     14 C14       -10.1388   -0.6215   59.8100 C.ar    1  ZINC000444542200   -0.0800
     15 C15        -9.5929   -1.4853   60.7413 C.ar    1  ZINC000444542200   -0.0900
     16 C16        -9.3840   -2.8123   60.4162 C.ar    1  ZINC000444542200   -0.1100
     17 C17        -9.7212   -3.2778   59.1571 C.ar    1  ZINC000444542200    0.0800
     18 F18        -9.5173   -4.5747   58.8386 F       1  ZINC000444542200   -0.1200
     19 C19       -10.2739   -2.4128   58.2250 C.ar    1  ZINC000444542200    0.1000
     20 F20       -10.6039   -2.8649   56.9953 F       1  ZINC000444542200   -0.1100
     21 C21       -12.5589    0.0577   57.8365 C.3     1  ZINC000444542200    0.4400
     22 F22       -12.7701    1.3560   58.3131 F       1  ZINC000444542200   -0.1600
     23 F23       -13.2994   -0.1353   56.6653 F       1  ZINC000444542200   -0.1700
     24 F24       -12.9674   -0.8664   58.8042 F       1  ZINC000444542200   -0.1800
     25 C25        -7.6841    3.0920   54.7673 C.ar    1  ZINC000444542200   -0.1900
     26 C26        -6.5663    3.3264   53.9812 C.ar    1  ZINC000444542200    0.1800
     27 O27        -6.7122    3.6102   52.6602 O.3     1  ZINC000444542200   -0.3100
     28 C28        -8.0414    3.5937   52.1361 C.3     1  ZINC000444542200    0.0300
     29 C29        -5.2997    3.2767   54.5438 C.ar    1  ZINC000444542200   -0.2900
     30 H30        -4.4075    2.8784   58.4443 H       1  ZINC000444542200    0.0600
     31 H31        -4.1378    1.2930   57.6812 H       1  ZINC000444542200    0.0600
     32 H32        -2.7538    2.3488   58.0528 H       1  ZINC000444542200    0.1000
     33 H33        -6.1497    2.5216   57.7276 H       1  ZINC000444542200    0.1300
     34 H34        -9.8787    4.2319   57.2903 H       1  ZINC000444542200    0.0700
     35 H35        -9.6300    3.1462   58.6788 H       1  ZINC000444542200    0.0700
     36 H36        -8.3181    4.2250   58.1464 H       1  ZINC000444542200    0.0900
     37 H37       -10.7089    1.8420   58.2065 H       1  ZINC000444542200    0.4100
     38 H38       -10.3011    0.4151   60.0657 H       1  ZINC000444542200    0.1400
     39 H39        -9.3293   -1.1227   61.7238 H       1  ZINC000444542200    0.1500
     40 H40        -8.9571   -3.4860   61.1445 H       1  ZINC000444542200    0.1500
     41 H41        -8.6707    3.1344   54.3298 H       1  ZINC000444542200    0.1400
     42 H42        -8.6488    4.3299   52.6626 H       1  ZINC000444542200    0.0600
     43 H43        -8.0162    3.8365   51.0737 H       1  ZINC000444542200    0.1000
     44 H44        -8.4734    2.6022   52.2720 H       1  ZINC000444542200    0.0600
     45 H45        -4.4293    3.4594   53.9311 H       1  ZINC000444542200    0.1400
@<TRIPOS>BOND
     1     1     2    1
     2     1    30    1
     3     1    31    1
     4     1    32    1
     5     2     3    1
     6     3    29   ar
     7     3     4   ar
     8     4     5   ar
     9     4    33    1
    10     5     6    1
    11     5    25   ar
    12     6     7    1
    13     6     8   am
    14     7    34    1
    15     7    35    1
    16     7    36    1
    17     8     9    2
    18     8    10   am
    19    10    11    1
    20    10    37    1
    21    11    12    1
    22    11    13    1
    23    11    21    1
    24    13    19   ar
    25    13    14   ar
    26    14    15   ar
    27    14    38    1
    28    15    16   ar
    29    15    39    1
    30    16    17   ar
    31    16    40    1
    32    17    18    1
    33    17    19   ar
    34    19    20    1
    35    21    22    1
    36    21    23    1
    37    21    24    1
    38    25    26   ar
    39    25    41    1
    40    26    27    1
    41    26    29   ar
    42    27    28    1
    43    28    42    1
    44    28    43    1
    45    28    44    1
    46    29    45    1
@<TRIPOS>SUBSTRUCTURE
     1 ZINC000444542200        1 TEMP              0 ****  ****    0 ROOT


##########                                Name:    ZINC000341804698
##########                DOCK_Rotatable_Bonds:                   7
##########                         Heavy_Atoms:                  24
##########                    Molecular_Weight:             342.318
##########                DOCK_Rotatable_Bonds:                   7
##########                       Formal_Charge:                0.02
##########                     HBond_Acceptors:                   8
##########                        HBond_Donors:                   0
##########                         Heavy_Atoms:                  24
##########                          Grid_Score:          -28.490335
##########                     Grid_vdw_energy:          -27.586468
##########                      Grid_es_energy:           -0.903868
##########           Internal_energy_repulsive:           16.115297

@<TRIPOS>MOLECULE
ZINC000341804698
 41 42 1 0 0
SMALL
USER_CHARGES


@<TRIPOS>ATOM
      1 C1        -11.3110    2.7670   59.1321 C.3     1  ZINC000341804698    0.0300
      2 O2        -11.5378    1.6451   59.9876 O.3     1  ZINC000341804698   -0.3900
      3 C3        -10.4684    0.6972   59.9990 C.3     1  ZINC000341804698    0.0700
      4 C4        -11.0432   -0.7204   59.9676 C.3     1  ZINC000341804698    0.0400
      5 C5        -11.8191   -0.9623   61.1950 C.1     1  ZINC000341804698    0.2200
      6 N6        -12.4178   -1.1489   62.1420 N.1     1  ZINC000341804698   -0.4200
      7 C7        -11.9562   -0.8735   58.7490 C.3     1  ZINC000341804698   -0.1200
      8 C8        -12.5569   -2.2828   58.7399 C.3     1  ZINC000341804698    0.1100
      9 N9        -11.4642   -3.2631   58.8022 N.am    1  ZINC000341804698   -0.6000
     10 C10       -11.3698   -4.2454   57.8843 C.2     1  ZINC000341804698    0.5700
     11 O11       -10.4609   -5.0502   57.9467 O.2     1  ZINC000341804698   -0.5200
     12 C12       -12.3715   -4.3440   56.8013 C.ar    1  ZINC000341804698   -0.0900
     13 C13       -13.5134   -5.1279   56.9728 C.ar    1  ZINC000341804698   -0.1100
     14 C14       -14.4463   -5.2179   55.9599 C.ar    1  ZINC000341804698   -0.0800
     15 C15       -14.2538   -4.5336   54.7742 C.ar    1  ZINC000341804698   -0.1700
     16 C16       -13.1206   -3.7517   54.5942 C.ar    1  ZINC000341804698    0.1100
     17 O17       -12.9362   -3.0815   53.4263 O.3     1  ZINC000341804698   -0.3100
     18 C18       -11.6285   -3.1270   52.8516 C.3     1  ZINC000341804698    0.6000
     19 F19       -10.8195   -2.1591   53.4562 F       1  ZINC000341804698   -0.1600
     20 F20       -11.0727   -4.3942   53.0572 F       1  ZINC000341804698   -0.1300
     21 F21       -11.7135   -2.8723   51.4787 F       1  ZINC000341804698   -0.1600
     22 C22       -12.1814   -3.6494   55.6062 C.ar    1  ZINC000341804698   -0.0700
     23 C23       -10.4761   -3.1517   59.8838 C.3     1  ZINC000341804698    0.0900
     24 C24        -9.8987   -1.7328   59.8801 C.3     1  ZINC000341804698   -0.1200
     25 H25       -10.4153    3.2964   59.4568 H       1  ZINC000341804698    0.0400
     26 H26       -11.1769    2.4210   58.1071 H       1  ZINC000341804698    0.0500
     27 H27       -12.1677    3.4391   59.1795 H       1  ZINC000341804698    0.0900
     28 H28        -9.8362    0.8524   59.1248 H       1  ZINC000341804698    0.0700
     29 H29        -9.8757    0.8290   60.9042 H       1  ZINC000341804698    0.0600
     30 H30       -12.7578   -0.1368   58.8002 H       1  ZINC000341804698    0.1000
     31 H31       -11.3769   -0.7191   57.8387 H       1  ZINC000341804698    0.0900
     32 H32       -13.2094   -2.4075   59.6041 H       1  ZINC000341804698    0.0700
     33 H33       -13.1284   -2.4305   57.8236 H       1  ZINC000341804698    0.1100
     34 H34       -13.6667   -5.6640   57.8978 H       1  ZINC000341804698    0.1400
     35 H35       -15.3294   -5.8250   56.0938 H       1  ZINC000341804698    0.1400
     36 H36       -14.9872   -4.6077   53.9849 H       1  ZINC000341804698    0.1400
     37 H37       -11.2997   -3.0413   55.4677 H       1  ZINC000341804698    0.1500
     38 H38       -10.9589   -3.3473   60.8413 H       1  ZINC000341804698    0.0800
     39 H39        -9.6747   -3.8726   59.7223 H       1  ZINC000341804698    0.1100
     40 H40        -9.3389   -1.5701   58.9591 H       1  ZINC000341804698    0.1000
     41 H41        -9.2359   -1.6074   60.7364 H       1  ZINC000341804698    0.0900
@<TRIPOS>BOND
     1     1     2    1
     2     1    25    1
     3     1    26    1
     4     1    27    1
     5     2     3    1
     6     3     4    1
     7     3    28    1
     8     3    29    1
     9     4    24    1
    10     4     5    1
    11     4     7    1
    12     5     6    3
    13     7     8    1
    14     7    30    1
    15     7    31    1
    16     8     9    1
    17     8    32    1
    18     8    33    1
    19     9    10   am
    20     9    23    1
    21    10    11    2
    22    10    12    1
    23    12    22   ar
    24    12    13   ar
    25    13    14   ar
    26    13    34    1
    27    14    15   ar
    28    14    35    1
    29    15    16   ar
    30    15    36    1
    31    16    17    1
    32    16    22   ar
    33    17    18    1
    34    18    19    1
    35    18    20    1
    36    18    21    1
    37    22    37    1
    38    23    24    1
    39    23    38    1
    40    23    39    1
    41    24    40    1
    42    24    41    1
@<TRIPOS>SUBSTRUCTURE
     1 ZINC000341804698        1 TEMP              0 ****  ****    0 ROOT


##########                                Name:    ZINC000422507946
##########                DOCK_Rotatable_Bonds:                   7
##########                         Heavy_Atoms:                  25
##########                    Molecular_Weight:             364.484
##########                DOCK_Rotatable_Bonds:                   7
##########                       Formal_Charge:          0.00999952
##########                     HBond_Acceptors:                   6
##########                        HBond_Donors:                   1
##########                         Heavy_Atoms:                  25
##########                          Grid_Score:          -28.287432
##########                     Grid_vdw_energy:          -27.875019
##########                      Grid_es_energy:           -0.412413
##########           Internal_energy_repulsive:           34.811420

@<TRIPOS>MOLECULE
ZINC000422507946
 50 52 1 0 0
SMALL
USER_CHARGES


@<TRIPOS>ATOM
      1 C1         -7.3705    2.9738   52.4783 C.3     1  ZINC000422507946   -0.1400
      2 C2         -8.3067    1.9918   51.7714 C.3     1  ZINC000422507946   -0.0400
      3 H3         -8.9268    2.5158   51.0440 H       1  ZINC000422507946    0.1100
      4 C4         -9.1900    1.2556   52.8000 C.3     1  ZINC000422507946   -0.1400
      5 C5         -9.4590   -0.1727   52.2951 C.3     1  ZINC000422507946    0.1400
      6 H6        -10.1516   -0.1461   51.4540 H       1  ZINC000422507946    0.1100
      7 N7        -10.0164   -0.9890   53.3764 N.am    1  ZINC000422507946   -0.6900
      8 C8        -10.9289   -1.9415   53.0999 C.2     1  ZINC000422507946    0.5100
      9 O9        -11.2876   -2.1241   51.9552 O.2     1  ZINC000422507946   -0.5000
     10 C10       -11.4988   -2.7730   54.2032 C.2     1  ZINC000422507946    0.5100
     11 O11       -11.0157   -3.8566   54.4580 O.2     1  ZINC000422507946   -0.5200
     12 N12       -12.5495   -2.3193   54.9152 N.am    1  ZINC000422507946   -0.5700
     13 C13       -13.1082   -3.1344   55.9967 C.3     1  ZINC000422507946    0.1400
     14 C14       -12.0087   -3.5260   56.9501 C.ar    1  ZINC000422507946   -0.0800
     15 C15       -11.6824   -4.8586   57.1184 C.ar    1  ZINC000422507946   -0.1100
     16 C16       -10.6739   -5.2195   57.9927 C.ar    1  ZINC000422507946   -0.0900
     17 C17        -9.9909   -4.2480   58.6992 C.ar    1  ZINC000422507946   -0.1500
     18 C18       -10.3166   -2.9126   58.5310 C.ar    1  ZINC000422507946    0.1000
     19 F19        -9.6496   -1.9620   59.2213 F       1  ZINC000422507946   -0.1400
     20 C20       -11.3231   -2.5522   57.6514 C.ar    1  ZINC000422507946   -0.1500
     21 C21       -13.1327   -1.0111   54.6075 C.3     1  ZINC000422507946    0.1400
     22 C22       -14.5795   -0.9396   55.1383 C.3     1  ZINC000422507946   -0.1200
     23 C23       -14.4439   -0.2524   56.5198 C.3     1  ZINC000422507946   -0.1300
     24 C24       -13.3417    0.8063   56.2680 C.3     1  ZINC000422507946   -0.1200
     25 C25       -12.3458    0.0990   55.3259 C.3     1  ZINC000422507946   -0.1600
     26 C26        -8.0948   -0.7546   51.8400 C.3     1  ZINC000422507946   -0.0900
     27 S27        -7.3428    0.6680   50.9523 S.3     1  ZINC000422507946   -0.2700
     28 H28        -6.7343    3.4640   51.7413 H       1  ZINC000422507946    0.0700
     29 H29        -7.9608    3.7238   53.0048 H       1  ZINC000422507946    0.0700
     30 H30        -6.7491    2.4335   53.1925 H       1  ZINC000422507946    0.0700
     31 H31        -8.6756    1.2134   53.7601 H       1  ZINC000422507946    0.0900
     32 H32       -10.1348    1.7861   52.9171 H       1  ZINC000422507946    0.0900
     33 H33        -9.7287   -0.8439   54.2914 H       1  ZINC000422507946    0.4100
     34 H34       -13.8648   -2.5598   56.5311 H       1  ZINC000422507946    0.1100
     35 H35       -13.5625   -4.0322   55.5776 H       1  ZINC000422507946    0.1000
     36 H36       -12.2160   -5.6186   56.5668 H       1  ZINC000422507946    0.1400
     37 H37       -10.4201   -6.2609   58.1236 H       1  ZINC000422507946    0.1300
     38 H38        -9.2037   -4.5302   59.3825 H       1  ZINC000422507946    0.1400
     39 H39       -11.5777   -1.5110   57.5192 H       1  ZINC000422507946    0.1400
     40 H40       -13.1203   -0.8409   53.5310 H       1  ZINC000422507946    0.1100
     41 H41       -15.2007   -0.3398   54.4731 H       1  ZINC000422507946    0.0800
     42 H42       -14.9950   -1.9412   55.2496 H       1  ZINC000422507946    0.0600
     43 H43       -15.3804    0.2257   56.8069 H       1  ZINC000422507946    0.0700
     44 H44       -14.1260   -0.9683   57.2777 H       1  ZINC000422507946    0.0600
     45 H45       -13.7628    1.6881   55.7853 H       1  ZINC000422507946    0.0700
     46 H46       -12.8538    1.0789   57.2039 H       1  ZINC000422507946    0.0700
     47 H47       -11.5298   -0.3356   55.9034 H       1  ZINC000422507946    0.0900
     48 H48       -11.9520    0.8084   54.5981 H       1  ZINC000422507946    0.0800
     49 H49        -7.4889   -1.0411   52.6996 H       1  ZINC000422507946    0.1000
     50 H50        -8.2385   -1.5993   51.1662 H       1  ZINC000422507946    0.1100
@<TRIPOS>BOND
     1     1     2    1
     2     1    28    1
     3     1    29    1
     4     1    30    1
     5     2     3    1
     6     2    27    1
     7     2     4    1
     8     4     5    1
     9     4    31    1
    10     4    32    1
    11     5     6    1
    12     5     7    1
    13     5    26    1
    14     7     8   am
    15     7    33    1
    16     8     9    2
    17     8    10    1
    18    10    11    2
    19    10    12   am
    20    12    13    1
    21    12    21    1
    22    13    14    1
    23    13    34    1
    24    13    35    1
    25    14    20   ar
    26    14    15   ar
    27    15    16   ar
    28    15    36    1
    29    16    17   ar
    30    16    37    1
    31    17    18   ar
    32    17    38    1
    33    18    19    1
    34    18    20   ar
    35    20    39    1
    36    21    25    1
    37    21    22    1
    38    21    40    1
    39    22    23    1
    40    22    41    1
    41    22    42    1
    42    23    24    1
    43    23    43    1
    44    23    44    1
    45    24    25    1
    46    24    45    1
    47    24    46    1
    48    25    47    1
    49    25    48    1
    50    26    27    1
    51    26    49    1
    52    26    50    1
@<TRIPOS>SUBSTRUCTURE
     1 ZINC000422507946        1 TEMP              0 ****  ****    0 ROOT


##########                                Name:    ZINC000375477402
##########                DOCK_Rotatable_Bonds:                   5
##########                         Heavy_Atoms:                  26
##########                    Molecular_Weight:             378.342
##########                DOCK_Rotatable_Bonds:                   5
##########                       Formal_Charge:         -1.2666e-07
##########                     HBond_Acceptors:                   9
##########                        HBond_Donors:                   1
##########                         Heavy_Atoms:                  26
##########                          Grid_Score:          -28.276432
##########                     Grid_vdw_energy:          -29.585615
##########                      Grid_es_energy:            1.309184
##########           Internal_energy_repulsive:            6.918464

@<TRIPOS>MOLECULE
ZINC000375477402
 45 47 1 0 0
SMALL
USER_CHARGES


@<TRIPOS>ATOM
      1 O1         -8.9516    0.9715   55.9639 O.2     1  ZINC000375477402   -0.5600
      2 C2         -9.9470    0.3151   55.7258 C.2     1  ZINC000375477402    0.7200
      3 N3        -10.5816    0.4573   54.5452 N.am    1  ZINC000375477402   -0.7300
      4 C4        -10.0753    1.4071   53.5513 C.3     1  ZINC000375477402    0.1800
      5 H5         -9.6063    2.2496   54.0596 H       1  ZINC000375477402    0.1500
      6 C6         -9.0601    0.7220   52.6732 C.ar    1  ZINC000375477402   -0.1300
      7 C7         -9.2294   -0.6055   52.3273 C.ar    1  ZINC000375477402   -0.0800
      8 C8         -8.2990   -1.2356   51.5219 C.ar    1  ZINC000375477402   -0.0900
      9 C9         -7.1975   -0.5394   51.0609 C.ar    1  ZINC000375477402   -0.1100
     10 C10        -7.0251    0.7900   51.4055 C.ar    1  ZINC000375477402    0.0800
     11 F11        -5.9488    1.4712   50.9553 F       1  ZINC000375477402   -0.1200
     12 C12        -7.9612    1.4234   52.2086 C.ar    1  ZINC000375477402    0.1000
     13 F13        -7.7951    2.7210   52.5463 F       1  ZINC000375477402   -0.1100
     14 C14       -11.2355    1.9121   52.6912 C.3     1  ZINC000375477402    0.4400
     15 F15       -11.7948    0.8404   51.9870 F       1  ZINC000375477402   -0.1600
     16 F16       -12.2093    2.4887   53.5137 F       1  ZINC000375477402   -0.1700
     17 F17       -10.7632    2.8689   51.7863 F       1  ZINC000375477402   -0.1800
     18 N18       -10.4127   -0.5586   56.6402 N.am    1  ZINC000375477402   -0.6300
     19 C19       -11.6009   -1.4179   56.4813 C.3     1  ZINC000375477402    0.1000
     20 C20       -11.3640   -2.6082   57.4460 C.3     1  ZINC000375477402   -0.1200
     21 C21       -10.6640   -1.9091   58.6327 C.3     1  ZINC000375477402   -0.1100
     22 C22        -9.8164   -0.8185   57.9606 C.3     1  ZINC000375477402    0.1400
     23 C23       -11.6995   -1.2959   59.5671 C.3     1  ZINC000375477402   -0.1100
     24 C24       -10.9832   -0.6660   60.7674 C.3     1  ZINC000375477402   -0.1600
     25 C25       -10.1127   -1.7283   61.4440 C.3     1  ZINC000375477402    0.0600
     26 O26        -9.1735   -2.2475   60.5001 O.3     1  ZINC000375477402   -0.3800
     27 C27        -9.7754   -2.8968   59.3767 C.3     1  ZINC000375477402    0.0800
     28 H28       -11.3734   -0.0692   54.3537 H       1  ZINC000375477402    0.4000
     29 H29       -10.0893   -1.1512   52.6868 H       1  ZINC000375477402    0.1400
     30 H30        -8.4327   -2.2729   51.2528 H       1  ZINC000375477402    0.1500
     31 H31        -6.4713   -1.0328   50.4321 H       1  ZINC000375477402    0.1500
     32 H32       -12.5024   -0.8744   56.7642 H       1  ZINC000375477402    0.0700
     33 H33       -11.6777   -1.7725   55.4535 H       1  ZINC000375477402    0.0700
     34 H34       -12.3090   -3.0535   57.7568 H       1  ZINC000375477402    0.0900
     35 H35       -10.7122   -3.3550   56.9927 H       1  ZINC000375477402    0.0800
     36 H36        -8.7885   -1.1636   57.8486 H       1  ZINC000375477402    0.0800
     37 H37        -9.8416    0.0925   58.5585 H       1  ZINC000375477402    0.0700
     38 H38       -12.2617   -0.5287   59.0346 H       1  ZINC000375477402    0.0700
     39 H39       -12.3807   -2.0721   59.9156 H       1  ZINC000375477402    0.0700
     40 H40       -10.3551    0.1569   60.4264 H       1  ZINC000375477402    0.0700
     41 H41       -11.7212   -0.2930   61.4776 H       1  ZINC000375477402    0.0800
     42 H42        -9.5768   -1.2799   62.2806 H       1  ZINC000375477402    0.1000
     43 H43       -10.7451   -2.5373   61.8095 H       1  ZINC000375477402    0.0500
     44 H44       -10.3771   -3.7372   59.7225 H       1  ZINC000375477402    0.0600
     45 H45        -8.9961   -3.2599   58.7067 H       1  ZINC000375477402    0.1000
@<TRIPOS>BOND
     1     1     2    2
     2     2     3   am
     3     2    18   am
     4     3     4    1
     5     3    28    1
     6     4     5    1
     7     4     6    1
     8     4    14    1
     9     6    12   ar
    10     6     7   ar
    11     7     8   ar
    12     7    29    1
    13     8     9   ar
    14     8    30    1
    15     9    10   ar
    16     9    31    1
    17    10    11    1
    18    10    12   ar
    19    12    13    1
    20    14    15    1
    21    14    16    1
    22    14    17    1
    23    18    22    1
    24    18    19    1
    25    19    20    1
    26    19    32    1
    27    19    33    1
    28    20    21    1
    29    20    34    1
    30    20    35    1
    31    21    27    1
    32    21    22    1
    33    21    23    1
    34    22    36    1
    35    22    37    1
    36    23    24    1
    37    23    38    1
    38    23    39    1
    39    24    25    1
    40    24    40    1
    41    24    41    1
    42    25    26    1
    43    25    42    1
    44    25    43    1
    45    26    27    1
    46    27    44    1
    47    27    45    1
@<TRIPOS>SUBSTRUCTURE
     1 ZINC000375477402        1 TEMP              0 ****  ****    0 ROOT


##########                                Name:    ZINC000277311370
##########                DOCK_Rotatable_Bonds:                   5
##########                         Heavy_Atoms:                  17
##########                    Molecular_Weight:             361.036
##########                DOCK_Rotatable_Bonds:                   5
##########                       Formal_Charge:        -7.45058e-08
##########                     HBond_Acceptors:                   4
##########                        HBond_Donors:                   1
##########                         Heavy_Atoms:                  17
##########                          Grid_Score:          -28.190414
##########                     Grid_vdw_energy:          -27.489641
##########                      Grid_es_energy:           -0.700772
##########           Internal_energy_repulsive:            8.650933

@<TRIPOS>MOLECULE
ZINC000277311370
 28 28 1 0 0
SMALL
USER_CHARGES


@<TRIPOS>ATOM
      1 C1         -9.7786   -1.4162   61.2370 C.3     1  ZINC000277311370   -0.1500
      2 C2         -9.9209   -2.1810   59.9195 C.3     1  ZINC000277311370   -0.1000
      3 C3         -9.7360   -3.6779   60.1763 C.3     1  ZINC000277311370   -0.1600
      4 C4        -11.3119   -1.9321   59.3331 C.3     1  ZINC000277311370    0.2500
      5 H5        -11.4155   -0.8774   59.0783 H       1  ZINC000277311370    0.1400
      6 C6        -12.3356   -2.3003   60.3247 C.1     1  ZINC000277311370    0.1900
      7 N7        -13.1256   -2.5845   61.0899 N.1     1  ZINC000277311370   -0.4100
      8 N8        -11.4858   -2.7451   58.1267 N.am    1  ZINC000277311370   -0.7000
      9 C9        -12.4543   -2.4382   57.2411 C.2     1  ZINC000277311370    0.5700
     10 O10       -13.1823   -1.4862   57.4424 O.2     1  ZINC000277311370   -0.4900
     11 C11       -12.6312   -3.2610   56.0225 C.ar    1  ZINC000277311370    0.1100
     12 N12       -11.9971   -2.9272   54.9049 N.ar    1  ZINC000277311370   -0.4300
     13 C13       -12.1266   -3.6316   53.8012 C.ar    1  ZINC000277311370    0.1300
     14 Br14      -11.1957   -3.1023   52.2426 Br      1  ZINC000277311370    0.0200
     15 C15       -12.9365   -4.7572   53.7651 C.ar    1  ZINC000277311370   -0.1100
     16 C16       -13.6166   -5.1415   54.9091 C.ar    1  ZINC000277311370   -0.0400
     17 C17       -13.4576   -4.3830   56.0599 C.ar    1  ZINC000277311370   -0.0900
     18 Br18      -14.3596   -4.8567   57.6530 Br      1  ZINC000277311370    0.0300
     19 H19        -8.7877   -1.5935   61.6549 H       1  ZINC000277311370    0.0700
     20 H20        -9.9104   -0.3498   61.0541 H       1  ZINC000277311370    0.0700
     21 H21       -10.5366   -1.7604   61.9407 H       1  ZINC000277311370    0.0600
     22 H22        -9.1629   -1.8368   59.2159 H       1  ZINC000277311370    0.1000
     23 H23       -10.4939   -4.0222   60.8799 H       1  ZINC000277311370    0.0600
     24 H24        -9.8374   -4.2228   59.2377 H       1  ZINC000277311370    0.0600
     25 H25        -8.7450   -3.8553   60.5942 H       1  ZINC000277311370    0.0700
     26 H26       -10.9039   -3.5042   57.9654 H       1  ZINC000277311370    0.4200
     27 H27       -13.0360   -5.3284   52.8540 H       1  ZINC000277311370    0.1600
     28 H28       -14.2531   -6.0141   54.9063 H       1  ZINC000277311370    0.1700
@<TRIPOS>BOND
     1     1     2    1
     2     1    19    1
     3     1    20    1
     4     1    21    1
     5     2     3    1
     6     2     4    1
     7     2    22    1
     8     3    23    1
     9     3    24    1
    10     3    25    1
    11     4     5    1
    12     4     6    1
    13     4     8    1
    14     6     7    3
    15     8     9   am
    16     8    26    1
    17     9    10    2
    18     9    11    1
    19    11    17   ar
    20    11    12   ar
    21    12    13   ar
    22    13    14    1
    23    13    15   ar
    24    15    16   ar
    25    15    27    1
    26    16    17   ar
    27    16    28    1
    28    17    18    1
@<TRIPOS>SUBSTRUCTURE
     1 ZINC000277311370        1 TEMP              0 ****  ****    0 ROOT


##########                                Name:    ZINC000331626032
##########                DOCK_Rotatable_Bonds:                   5
##########                         Heavy_Atoms:                  25
##########                    Molecular_Weight:              339.44
##########                DOCK_Rotatable_Bonds:                   5
##########                       Formal_Charge:        -2.16067e-07
##########                     HBond_Acceptors:                   6
##########                        HBond_Donors:                   2
##########                         Heavy_Atoms:                  25
##########                          Grid_Score:          -28.059692
##########                     Grid_vdw_energy:          -28.181543
##########                      Grid_es_energy:            0.121852
##########           Internal_energy_repulsive:           25.383884

@<TRIPOS>MOLECULE
ZINC000331626032
 50 52 1 0 0
SMALL
USER_CHARGES


@<TRIPOS>ATOM
      1 C1        -15.2716   -2.0288   53.5480 C.3     1  ZINC000331626032   -0.2000
      2 C2        -13.9991   -2.5511   54.2182 C.3     1  ZINC000331626032    0.0700
      3 H3        -13.7253   -3.5108   53.7798 H       1  ZINC000331626032    0.1100
      4 C4        -12.8793   -1.5649   54.0075 C.2     1  ZINC000331626032    0.5200
      5 O5        -13.0844   -0.3769   54.1411 O.2     1  ZINC000331626032   -0.5000
      6 N6        -11.6501   -2.0029   53.6708 N.am    1  ZINC000331626032   -0.5800
      7 C7        -11.4024   -3.4376   53.5095 C.3     1  ZINC000331626032    0.0800
      8 C8        -10.6103   -1.0870   53.4752 C.ar    1  ZINC000331626032    0.1400
      9 C9         -9.9918   -0.9909   52.2355 C.ar    1  ZINC000331626032   -0.1000
     10 C10        -8.9659   -0.0859   52.0456 C.ar    1  ZINC000331626032   -0.1100
     11 C11        -8.5541    0.7235   53.0883 C.ar    1  ZINC000331626032   -0.1200
     12 C12        -9.1677    0.6299   54.3240 C.ar    1  ZINC000331626032   -0.1100
     13 C13       -10.1987   -0.2682   54.5185 C.ar    1  ZINC000331626032   -0.1200
     14 N14       -14.2381   -2.7207   55.6577 N.3     1  ZINC000331626032   -0.5100
     15 C15       -15.0530   -3.9139   55.9189 C.3     1  ZINC000331626032    0.0500
     16 C16       -15.4032   -3.9784   57.4072 C.3     1  ZINC000331626032   -0.1100
     17 C17       -14.1119   -4.0296   58.2286 C.3     1  ZINC000331626032   -0.1100
     18 C18       -13.2595   -2.8003   57.9019 C.3     1  ZINC000331626032   -0.0400
     19 H19       -13.7988   -1.8971   58.1874 H       1  ZINC000331626032    0.1000
     20 C20       -11.9605   -2.8722   58.6626 C.ar    1  ZINC000331626032    0.2300
     21 C21       -10.9555   -3.7345   58.2541 C.ar    1  ZINC000331626032   -0.2900
     22 C22        -9.7761   -3.7698   58.9819 C.ar    1  ZINC000331626032    0.1900
     23 N23        -9.6460   -2.9843   60.0380 N.ar    1  ZINC000331626032   -0.5700
     24 C24       -10.6266   -2.1709   60.4020 C.ar    1  ZINC000331626032    0.5700
     25 N25       -10.4564   -1.3621   61.5122 N.pl3   1  ZINC000331626032   -0.8200
     26 N26       -11.7638   -2.1091   59.7251 N.ar    1  ZINC000331626032   -0.5700
     27 C27       -12.9715   -2.7700   56.3992 C.3     1  ZINC000331626032    0.0700
     28 H28       -15.5454   -1.0692   53.9864 H       1  ZINC000331626032    0.0700
     29 H29       -15.0943   -1.9030   52.4800 H       1  ZINC000331626032    0.0800
     30 H30       -16.0815   -2.7422   53.7004 H       1  ZINC000331626032    0.0700
     31 H31       -11.5889   -3.7245   52.4745 H       1  ZINC000331626032    0.0600
     32 H32       -10.3664   -3.6588   53.7667 H       1  ZINC000331626032    0.0800
     33 H33       -12.0675   -3.9974   54.1671 H       1  ZINC000331626032    0.0800
     34 H34       -10.3125   -1.6234   51.4208 H       1  ZINC000331626032    0.1200
     35 H35        -8.4845   -0.0108   51.0818 H       1  ZINC000331626032    0.1300
     36 H36        -7.7515    1.4302   52.9374 H       1  ZINC000331626032    0.1300
     37 H37        -8.8434    1.2631   55.1367 H       1  ZINC000331626032    0.1300
     38 H38       -10.6775   -0.3409   55.4839 H       1  ZINC000331626032    0.1200
     39 H39       -15.9701   -3.8630   55.3320 H       1  ZINC000331626032    0.0900
     40 H40       -14.4919   -4.8055   55.6389 H       1  ZINC000331626032    0.0300
     41 H41       -15.9763   -3.0938   57.6850 H       1  ZINC000331626032    0.0800
     42 H42       -15.9950   -4.8725   57.6035 H       1  ZINC000331626032    0.0700
     43 H43       -14.3558   -4.0319   59.2909 H       1  ZINC000331626032    0.0700
     44 H44       -13.5572   -4.9342   57.9793 H       1  ZINC000331626032    0.0700
     45 H45       -11.0883   -4.3656   57.3877 H       1  ZINC000331626032    0.1400
     46 H46        -8.9735   -4.4309   58.6902 H       1  ZINC000331626032    0.1700
     47 H47        -9.6268   -1.3949   62.0136 H       1  ZINC000331626032    0.4100
     48 H48       -11.1669   -0.7624   61.7888 H       1  ZINC000331626032    0.4100
     49 H49       -12.4201   -3.6669   56.1169 H       1  ZINC000331626032    0.0400
     50 H50       -12.3767   -1.8881   56.1611 H       1  ZINC000331626032    0.0800
@<TRIPOS>BOND
     1     1     2    1
     2     1    28    1
     3     1    29    1
     4     1    30    1
     5     2     3    1
     6     2     4    1
     7     2    14    1
     8     4     5    2
     9     4     6   am
    10     6     7    1
    11     6     8    1
    12     7    31    1
    13     7    32    1
    14     7    33    1
    15     8    13   ar
    16     8     9   ar
    17     9    10   ar
    18     9    34    1
    19    10    11   ar
    20    10    35    1
    21    11    12   ar
    22    11    36    1
    23    12    13   ar
    24    12    37    1
    25    13    38    1
    26    14    27    1
    27    14    15    1
    28    15    16    1
    29    15    39    1
    30    15    40    1
    31    16    17    1
    32    16    41    1
    33    16    42    1
    34    17    18    1
    35    17    43    1
    36    17    44    1
    37    18    19    1
    38    18    20    1
    39    18    27    1
    40    20    26   ar
    41    20    21   ar
    42    21    22   ar
    43    21    45    1
    44    22    23   ar
    45    22    46    1
    46    23    24   ar
    47    24    25    1
    48    24    26   ar
    49    25    47    1
    50    25    48    1
    51    27    49    1
    52    27    50    1
@<TRIPOS>SUBSTRUCTURE
     1 ZINC000331626032        1 TEMP              0 ****  ****    0 ROOT


##########                                Name:    ZINC000647468483
##########                DOCK_Rotatable_Bonds:                   5
##########                         Heavy_Atoms:                  24
##########                    Molecular_Weight:             341.373
##########                DOCK_Rotatable_Bonds:                   5
##########                       Formal_Charge:           0.0300004
##########                     HBond_Acceptors:                   6
##########                        HBond_Donors:                   2
##########                         Heavy_Atoms:                  24
##########                          Grid_Score:          -28.041454
##########                     Grid_vdw_energy:          -27.563641
##########                      Grid_es_energy:           -0.477813
##########           Internal_energy_repulsive:           19.204653

@<TRIPOS>MOLECULE
ZINC000647468483
 46 48 1 0 0
SMALL
USER_CHARGES


@<TRIPOS>ATOM
      1 O1        -10.1006   -1.9310   51.9430 O.co2   1  ZINC000647468483   -0.6800
      2 C2        -11.2109   -2.4261   52.0354 C.2     1  ZINC000647468483    0.5000
      3 O3        -11.4437   -3.5030   51.5132 O.co2   1  ZINC000647468483   -0.6900
      4 C4        -12.2940   -1.7099   52.8006 C.3     1  ZINC000647468483   -0.1500
      5 H5        -12.8423   -1.0314   52.1471 H       1  ZINC000647468483    0.0800
      6 C6        -11.6988   -0.9464   54.0096 C.3     1  ZINC000647468483   -0.1100
      7 C7        -12.8826   -0.8069   54.9888 C.3     1  ZINC000647468483   -0.1400
      8 C8        -13.8701   -1.9368   54.6486 C.3     1  ZINC000647468483    0.0100
      9 H9        -14.8308   -1.5162   54.3515 H       1  ZINC000647468483    0.1400
     10 N10       -14.0449   -2.8190   55.8101 N.4     1  ZINC000647468483   -0.5000
     11 H11       -14.5485   -3.6475   55.5303 H       1  ZINC000647468483    0.4200
     12 H12       -13.1404   -3.0814   56.1722 H       1  ZINC000647468483    0.4300
     13 C13       -14.8034   -2.1130   56.8513 C.3     1  ZINC000647468483    0.0200
     14 H14       -14.5102   -1.0636   56.8798 H       1  ZINC000647468483    0.1500
     15 C15       -16.3126   -2.2315   56.5760 C.3     1  ZINC000647468483   -0.1400
     16 C16       -16.9269   -2.9562   57.7913 C.3     1  ZINC000647468483   -0.1300
     17 C17       -15.7424   -3.7467   58.4008 C.3     1  ZINC000647468483   -0.1300
     18 C18       -14.5521   -2.7693   58.2247 C.3     1  ZINC000647468483   -0.0600
     19 H19       -14.5559   -2.0175   59.0139 H       1  ZINC000647468483    0.1300
     20 C20       -13.2469   -3.5228   58.2221 C.ar    1  ZINC000647468483   -0.1200
     21 C21       -13.1339   -4.7068   57.5182 C.ar    1  ZINC000647468483   -0.0700
     22 C22       -11.9365   -5.3981   57.5159 C.ar    1  ZINC000647468483   -0.1000
     23 C23       -10.8524   -4.9047   58.2172 C.ar    1  ZINC000647468483   -0.0600
     24 C24       -10.9653   -3.7198   58.9206 C.ar    1  ZINC000647468483   -0.1600
     25 C25        -9.7834   -3.1822   59.6856 C.3     1  ZINC000647468483    0.5000
     26 F26       -10.1119   -3.0828   61.0418 F       1  ZINC000647468483   -0.1700
     27 F27        -8.6952   -4.0478   59.5315 F       1  ZINC000647468483   -0.1700
     28 F28        -9.4460   -1.9168   59.1935 F       1  ZINC000647468483   -0.1700
     29 C29       -12.1611   -3.0267   58.9194 C.ar    1  ZINC000647468483   -0.1100
     30 C30       -13.2548   -2.7235   53.4702 C.3     1  ZINC000647468483   -0.1200
     31 H31       -10.8928   -1.5218   54.4649 H       1  ZINC000647468483    0.0800
     32 H32       -11.3407    0.0360   53.7016 H       1  ZINC000647468483    0.0800
     33 H33       -12.5324   -0.9136   56.0155 H       1  ZINC000647468483    0.0700
     34 H34       -13.3640    0.1621   54.8570 H       1  ZINC000647468483    0.1000
     35 H35       -16.7521   -1.2394   56.4716 H       1  ZINC000647468483    0.1000
     36 H36       -16.4823   -2.8128   55.6696 H       1  ZINC000647468483    0.0900
     37 H37       -17.3140   -2.2344   58.5105 H       1  ZINC000647468483    0.0800
     38 H38       -17.7153   -3.6374   57.4710 H       1  ZINC000647468483    0.0900
     39 H39       -15.9187   -3.9542   59.4561 H       1  ZINC000647468483    0.0900
     40 H40       -15.5691   -4.6701   57.8481 H       1  ZINC000647468483    0.0800
     41 H41       -13.9810   -5.0922   56.9702 H       1  ZINC000647468483    0.1400
     42 H42       -11.8484   -6.3236   56.9665 H       1  ZINC000647468483    0.1500
     43 H43        -9.9174   -5.4451   58.2161 H       1  ZINC000647468483    0.1500
     44 H44       -12.2492   -2.1011   59.4689 H       1  ZINC000647468483    0.1400
     45 H45       -14.0323   -3.0371   52.7735 H       1  ZINC000647468483    0.0900
     46 H46       -12.6989   -3.5866   53.8366 H       1  ZINC000647468483    0.1000
@<TRIPOS>BOND
     1     1     2   ar
     2     2     3   ar
     3     2     4    1
     4     4     5    1
     5     4    30    1
     6     4     6    1
     7     6     7    1
     8     6    31    1
     9     6    32    1
    10     7     8    1
    11     7    33    1
    12     7    34    1
    13     8     9    1
    14     8    10    1
    15     8    30    1
    16    10    11    1
    17    10    12    1
    18    10    13    1
    19    13    14    1
    20    13    18    1
    21    13    15    1
    22    15    16    1
    23    15    35    1
    24    15    36    1
    25    16    17    1
    26    16    37    1
    27    16    38    1
    28    17    18    1
    29    17    39    1
    30    17    40    1
    31    18    19    1
    32    18    20    1
    33    20    29   ar
    34    20    21   ar
    35    21    22   ar
    36    21    41    1
    37    22    23   ar
    38    22    42    1
    39    23    24   ar
    40    23    43    1
    41    24    25    1
    42    24    29   ar
    43    25    26    1
    44    25    27    1
    45    25    28    1
    46    29    44    1
    47    30    45    1
    48    30    46    1
@<TRIPOS>SUBSTRUCTURE
     1 ZINC000647468483        1 TEMP              0 ****  ****    0 ROOT


##########                                Name:    ZINC000876376999
##########                DOCK_Rotatable_Bonds:                   7
##########                         Heavy_Atoms:                  24
##########                    Molecular_Weight:             358.502
##########                DOCK_Rotatable_Bonds:                   7
##########                       Formal_Charge:          -0.0299994
##########                     HBond_Acceptors:                   7
##########                        HBond_Donors:                   2
##########                         Heavy_Atoms:                  24
##########                          Grid_Score:          -28.020111
##########                     Grid_vdw_energy:          -26.804302
##########                      Grid_es_energy:           -1.215810
##########           Internal_energy_repulsive:           35.381886

@<TRIPOS>MOLECULE
ZINC000876376999
 54 56 1 0 0
SMALL
USER_CHARGES


@<TRIPOS>ATOM
      1 C1         -9.1860    3.5568   68.4819 C.3     1  ZINC000876376999   -0.1500
      2 C2        -10.2649    2.6963   67.8213 C.3     1  ZINC000876376999   -0.1100
      3 C3         -9.6548    1.9238   66.6501 C.3     1  ZINC000876376999   -0.0700
      4 C4         -9.0938    2.9107   65.6243 C.3     1  ZINC000876376999    0.0900
      5 O5        -10.1464    3.7504   65.1460 O.3     1  ZINC000876376999   -0.5600
      6 C6         -8.5283    1.0239   67.1631 C.3     1  ZINC000876376999   -0.1100
      7 C7         -7.8955    0.2753   65.9878 C.3     1  ZINC000876376999   -0.1400
      8 C8         -8.9544   -0.6083   65.3208 C.3     1  ZINC000876376999    0.1100
      9 N9        -10.1055    0.2280   64.9542 N.am    1  ZINC000876376999   -0.6300
     10 C10       -10.5766    0.2327   63.6915 C.2     1  ZINC000876376999    0.7100
     11 O11       -11.5300    0.9290   63.4008 O.2     1  ZINC000876376999   -0.5800
     12 N12        -9.9910   -0.5348   62.7510 N.am    1  ZINC000876376999   -0.7500
     13 C13       -10.5030   -0.5298   61.3784 C.3     1  ZINC000876376999    0.1400
     14 C14       -10.3343   -1.9250   60.7647 C.3     1  ZINC000876376999   -0.1100
     15 C15       -11.6673   -2.6134   60.6530 C.3     1  ZINC000876376999   -0.1100
     16 C16       -12.3318   -2.5694   59.2719 C.3     1  ZINC000876376999   -0.5200
     17 H17       -13.3152   -3.0588   59.2405 H       1  ZINC000876376999    0.1500
     18 C18       -12.3759   -1.0908   58.8231 C.3     1  ZINC000876376999   -0.1200
     19 C19       -11.0476   -0.6605   58.2102 C.3     1  ZINC000876376999   -0.1200
     20 C20       -10.0292   -1.8236   58.2095 C.3     1  ZINC000876376999   -0.5300
     21 H21        -9.3017   -1.7588   57.3883 H       1  ZINC000876376999    0.1500
     22 C22        -9.3842   -1.8740   59.5994 C.3     1  ZINC000876376999   -0.1000
     23 S23       -11.1165   -3.3058   58.1009 S.o2    1  ZINC000876376999    2.3700
     24 O24       -10.4790   -4.4272   58.6952 O.2     1  ZINC000876376999   -0.9300
     25 O25       -11.6846   -3.4021   56.8022 O.2     1  ZINC000876376999   -0.9300
     26 C26       -10.7336    1.0589   65.9905 C.3     1  ZINC000876376999    0.1400
     27 H27        -8.4254    2.9117   68.9216 H       1  ZINC000876376999    0.0500
     28 H28        -8.7266    4.2018   67.7329 H       1  ZINC000876376999    0.0600
     29 H29        -9.6375    4.1700   69.2618 H       1  ZINC000876376999    0.0500
     30 H30       -10.6659    1.9928   68.5510 H       1  ZINC000876376999    0.0600
     31 H31       -11.0671    3.3370   67.4554 H       1  ZINC000876376999    0.0700
     32 H32        -8.3244    3.5240   66.0932 H       1  ZINC000876376999    0.0500
     33 H33        -8.6605    2.3599   64.7894 H       1  ZINC000876376999    0.0400
     34 H34        -9.8627    4.4022   64.4904 H       1  ZINC000876376999    0.3800
     35 H35        -7.7710    1.6346   67.6547 H       1  ZINC000876376999    0.0700
     36 H36        -8.9335    0.3052   67.8755 H       1  ZINC000876376999    0.0700
     37 H37        -7.5121    0.9935   65.2631 H       1  ZINC000876376999    0.0700
     38 H38        -7.0782   -0.3477   66.3508 H       1  ZINC000876376999    0.0800
     39 H39        -8.5360   -1.0670   64.4249 H       1  ZINC000876376999    0.0700
     40 H40        -9.2735   -1.3844   66.0163 H       1  ZINC000876376999    0.0700
     41 H41        -9.2305   -1.0905   62.9829 H       1  ZINC000876376999    0.3900
     42 H42       -11.5595   -0.2614   61.3857 H       1  ZINC000876376999    0.0800
     43 H43        -9.9475    0.1973   60.7860 H       1  ZINC000876376999    0.0700
     44 H44        -9.7811   -2.4999   61.5602 H       1  ZINC000876376999    0.0900
     45 H45       -11.5498   -3.6698   60.9516 H       1  ZINC000876376999    0.0900
     46 H46       -12.3611   -2.1726   61.3899 H       1  ZINC000876376999    0.0900
     47 H47       -13.1599   -0.9766   58.0681 H       1  ZINC000876376999    0.0800
     48 H48       -12.6183   -0.4528   59.6679 H       1  ZINC000876376999    0.0900
     49 H49       -11.2265   -0.3503   57.1760 H       1  ZINC000876376999    0.0800
     50 H50       -10.6440    0.1866   58.7570 H       1  ZINC000876376999    0.0900
     51 H51        -8.7256   -0.9953   59.7124 H       1  ZINC000876376999    0.0900
     52 H52        -8.7167   -2.7525   59.6443 H       1  ZINC000876376999    0.0900
     53 H53       -11.1977    0.4186   66.7407 H       1  ZINC000876376999    0.0600
     54 H54       -11.4891    1.7003   65.5366 H       1  ZINC000876376999    0.1000
@<TRIPOS>BOND
     1     1     2    1
     2     1    27    1
     3     1    28    1
     4     1    29    1
     5     2     3    1
     6     2    30    1
     7     2    31    1
     8     3    26    1
     9     3     4    1
    10     3     6    1
    11     4     5    1
    12     4    32    1
    13     4    33    1
    14     5    34    1
    15     6     7    1
    16     6    35    1
    17     6    36    1
    18     7     8    1
    19     7    37    1
    20     7    38    1
    21     8     9    1
    22     8    39    1
    23     8    40    1
    24     9    10   am
    25     9    26    1
    26    10    11    2
    27    10    12   am
    28    12    13    1
    29    12    41    1
    30    13    14    1
    31    13    42    1
    32    13    43    1
    33    14    22    1
    34    14    15    1
    35    14    44    1
    36    15    16    1
    37    15    45    1
    38    15    46    1
    39    16    17    1
    40    16    23    1
    41    16    18    1
    42    18    19    1
    43    18    47    1
    44    18    48    1
    45    19    20    1
    46    19    49    1
    47    19    50    1
    48    20    21    1
    49    20    22    1
    50    20    23    1
    51    22    51    1
    52    22    52    1
    53    23    24    2
    54    23    25    2
    55    26    53    1
    56    26    54    1
@<TRIPOS>SUBSTRUCTURE
     1 ZINC000876376999        1 TEMP              0 ****  ****    0 ROOT


##########                                Name:    ZINC001135312623
##########                DOCK_Rotatable_Bonds:                   3
##########                         Heavy_Atoms:                  25
##########                    Molecular_Weight:             341.323
##########                DOCK_Rotatable_Bonds:                   3
##########                       Formal_Charge:        -1.78814e-07
##########                     HBond_Acceptors:                   8
##########                        HBond_Donors:                   2
##########                         Heavy_Atoms:                  25
##########                          Grid_Score:          -27.923279
##########                     Grid_vdw_energy:          -26.185200
##########                      Grid_es_energy:           -1.738078
##########           Internal_energy_repulsive:            4.944545

@<TRIPOS>MOLECULE
ZINC001135312623
 40 42 1 0 0
SMALL
USER_CHARGES


@<TRIPOS>ATOM
      1 C1        -10.9860    2.7687   62.6969 C.3     1  ZINC001135312623   -0.1300
      2 C2        -10.5092    2.3221   64.0548 C.ar    1  ZINC001135312623   -0.0600
      3 C3        -10.6364    3.1627   65.1429 C.ar    1  ZINC001135312623   -0.1000
      4 C4        -10.1986    2.7538   66.3895 C.ar    1  ZINC001135312623   -0.0300
      5 C5        -10.3389    3.6738   67.5749 C.3     1  ZINC001135312623   -0.1300
      6 C6         -9.6329    1.5025   66.5507 C.ar    1  ZINC001135312623   -0.0200
      7 N7         -9.1657    1.0689   67.8866 N.pl3   1  ZINC001135312623    0.0200
      8 O8         -8.1713    0.3728   67.9877 O.2     1  ZINC001135312623   -0.1500
      9 O9         -9.7756    1.4082   68.8848 O.2     1  ZINC001135312623   -0.1500
     10 C10        -9.5036    0.6564   65.4666 C.ar    1  ZINC001135312623   -0.0700
     11 C11        -9.9466    1.0620   64.2145 C.ar    1  ZINC001135312623    0.1500
     12 N12        -9.8173    0.2080   63.1147 N.am    1  ZINC001135312623   -0.6600
     13 C13       -10.8831   -0.4896   62.6743 C.2     1  ZINC001135312623    0.5600
     14 O14       -11.9570   -0.3763   63.2332 O.2     1  ZINC001135312623   -0.5000
     15 C15       -10.7467   -1.3909   61.5139 C.ar    1  ZINC001135312623   -0.1600
     16 C16        -9.6049   -2.1842   61.3743 C.ar    1  ZINC001135312623   -0.0400
     17 C17        -9.4778   -3.0250   60.2903 C.ar    1  ZINC001135312623   -0.1500
     18 C18       -10.4861   -3.0834   59.3368 C.ar    1  ZINC001135312623    0.2000
     19 N19       -10.3762   -3.9254   58.2299 N.am    1  ZINC001135312623   -0.6700
     20 C20       -11.1904   -3.7450   57.1707 C.2     1  ZINC001135312623    0.6600
     21 O21       -11.1103   -4.4945   56.2176 O.2     1  ZINC001135312623   -0.4900
     22 O22       -12.0908   -2.7457   57.1561 O.3     1  ZINC001135312623   -0.3400
     23 C23       -12.7047   -2.3822   58.4231 C.3     1  ZINC001135312623    0.1100
     24 C24       -11.6269   -2.2941   59.4747 C.ar    1  ZINC001135312623   -0.1800
     25 C25       -11.7629   -1.4567   60.5547 C.ar    1  ZINC001135312623    0.0000
     26 H26       -12.0308    2.4862   62.5676 H       1  ZINC001135312623    0.0900
     27 H27       -10.8897    3.8515   62.6158 H       1  ZINC001135312623    0.0800
     28 H28       -10.3825    2.2915   61.9248 H       1  ZINC001135312623    0.0700
     29 H29       -11.0778    4.1406   65.0204 H       1  ZINC001135312623    0.1500
     30 H30       -11.3335    3.5614   68.0063 H       1  ZINC001135312623    0.0900
     31 H31        -9.5876    3.4201   68.3226 H       1  ZINC001135312623    0.0800
     32 H32       -10.1971    4.7054   67.2528 H       1  ZINC001135312623    0.0800
     33 H33        -9.0616   -0.3209   65.5932 H       1  ZINC001135312623    0.1700
     34 H34        -8.9606    0.1174   62.6689 H       1  ZINC001135312623    0.4200
     35 H35        -8.8214   -2.1382   62.1164 H       1  ZINC001135312623    0.1400
     36 H36        -8.5952   -3.6377   60.1820 H       1  ZINC001135312623    0.1500
     37 H37        -9.7170   -4.6369   58.2224 H       1  ZINC001135312623    0.4300
     38 H38       -13.2002   -1.4162   58.3256 H       1  ZINC001135312623    0.1300
     39 H39       -13.4326   -3.1420   58.7081 H       1  ZINC001135312623    0.1000
     40 H40       -12.6491   -0.8486   60.6610 H       1  ZINC001135312623    0.1500
@<TRIPOS>BOND
     1     1     2    1
     2     1    26    1
     3     1    27    1
     4     1    28    1
     5     2    11   ar
     6     2     3   ar
     7     3     4   ar
     8     3    29    1
     9     4     5    1
    10     4     6   ar
    11     5    30    1
    12     5    31    1
    13     5    32    1
    14     6     7    1
    15     6    10   ar
    16     7     8    2
    17     7     9    2
    18    10    11   ar
    19    10    33    1
    20    11    12    1
    21    12    13   am
    22    12    34    1
    23    13    14    2
    24    13    15    1
    25    15    25   ar
    26    15    16   ar
    27    16    17   ar
    28    16    35    1
    29    17    18   ar
    30    17    36    1
    31    18    24   ar
    32    18    19    1
    33    19    20   am
    34    19    37    1
    35    20    21    2
    36    20    22    1
    37    22    23    1
    38    23    24    1
    39    23    38    1
    40    23    39    1
    41    24    25   ar
    42    25    40    1
@<TRIPOS>SUBSTRUCTURE
     1 ZINC001135312623        1 TEMP              0 ****  ****    0 ROOT


##########                                Name:    ZINC000879023512
##########                DOCK_Rotatable_Bonds:                   4
##########                         Heavy_Atoms:                  20
##########                    Molecular_Weight:             346.156
##########                DOCK_Rotatable_Bonds:                   4
##########                       Formal_Charge:        -5.96046e-08
##########                     HBond_Acceptors:                   7
##########                        HBond_Donors:                   1
##########                         Heavy_Atoms:                  20
##########                          Grid_Score:          -27.882143
##########                     Grid_vdw_energy:          -26.008209
##########                      Grid_es_energy:           -1.873933
##########           Internal_energy_repulsive:            3.952166

@<TRIPOS>MOLECULE
ZINC000879023512
 33 34 1 0 0
SMALL
USER_CHARGES


@<TRIPOS>ATOM
      1 O1        -11.7569   -0.0989   61.6270 O.2     1  ZINC000879023512   -0.5600
      2 C2        -10.7299   -0.4790   62.1555 C.2     1  ZINC000879023512    0.7200
      3 N3         -9.9054   -1.3193   61.4993 N.am    1  ZINC000879023512   -0.6800
      4 C4        -10.2342   -1.7589   60.2116 C.ar    1  ZINC000879023512    0.1800
      5 C5        -10.6810   -3.0584   60.0134 C.ar    1  ZINC000879023512   -0.0900
      6 C6        -11.0048   -3.4897   58.7417 C.ar    1  ZINC000879023512   -0.0700
      7 C7        -10.8838   -2.6283   57.6661 C.ar    1  ZINC000879023512   -0.0700
      8 Br8       -11.3279   -3.2222   55.9266 Br      1  ZINC000879023512    0.0200
      9 C9        -10.4387   -1.3325   57.8608 C.ar    1  ZINC000879023512    0.0000
     10 N10       -10.3105   -0.4136   56.7076 N.pl3   1  ZINC000879023512    0.0200
     11 O11        -9.9187    0.7270   56.8783 O.2     1  ZINC000879023512   -0.1500
     12 O12       -10.5966   -0.7980   55.5878 O.2     1  ZINC000879023512   -0.1300
     13 C13       -10.1196   -0.8943   59.1309 C.ar    1  ZINC000879023512   -0.0500
     14 N14       -10.4134   -0.0557   63.3953 N.am    1  ZINC000879023512   -0.6300
     15 C15       -11.2213    0.8518   64.2232 C.3     1  ZINC000879023512    0.0900
     16 C16       -10.4541    1.0724   65.5438 C.3     1  ZINC000879023512   -0.1200
     17 C17        -8.9914    0.7281   65.1576 C.3     1  ZINC000879023512   -0.1400
     18 H18        -8.5019    1.5788   64.6835 H       1  ZINC000879023512    0.1000
     19 C19        -8.1993    0.2532   66.3774 C.3     1  ZINC000879023512    0.0700
     20 F20        -8.8041   -0.8904   66.9100 F       1  ZINC000879023512   -0.2100
     21 C21        -9.2030   -0.4310   64.1485 C.3     1  ZINC000879023512    0.1300
     22 H22        -9.0842   -1.6193   61.9193 H       1  ZINC000879023512    0.4200
     23 H23       -10.7749   -3.7316   60.8528 H       1  ZINC000879023512    0.1600
     24 H24       -11.3524   -4.5005   58.5870 H       1  ZINC000879023512    0.1600
     25 H25        -9.7726    0.1172   59.2823 H       1  ZINC000879023512    0.1800
     26 H26       -11.3546    1.8034   63.7085 H       1  ZINC000879023512    0.0700
     27 H27       -12.1919    0.4004   64.4292 H       1  ZINC000879023512    0.0700
     28 H28       -10.5335    2.1104   65.8672 H       1  ZINC000879023512    0.0900
     29 H29       -10.8175    0.3972   66.3184 H       1  ZINC000879023512    0.0900
     30 H30        -7.1778    0.0181   66.0783 H       1  ZINC000879023512    0.0800
     31 H31        -8.1851    1.0410   67.1306 H       1  ZINC000879023512    0.0800
     32 H32        -9.3555   -1.3716   64.6778 H       1  ZINC000879023512    0.0800
     33 H33        -8.3496   -0.5078   63.4747 H       1  ZINC000879023512    0.0900
@<TRIPOS>BOND
     1     1     2    2
     2     2     3   am
     3     2    14   am
     4     3     4    1
     5     3    22    1
     6     4    13   ar
     7     4     5   ar
     8     5     6   ar
     9     5    23    1
    10     6     7   ar
    11     6    24    1
    12     7     8    1
    13     7     9   ar
    14     9    10    1
    15     9    13   ar
    16    10    11    2
    17    10    12    2
    18    13    25    1
    19    14    21    1
    20    14    15    1
    21    15    16    1
    22    15    26    1
    23    15    27    1
    24    16    17    1
    25    16    28    1
    26    16    29    1
    27    17    18    1
    28    17    19    1
    29    17    21    1
    30    19    20    1
    31    19    30    1
    32    19    31    1
    33    21    32    1
    34    21    33    1
@<TRIPOS>SUBSTRUCTURE
     1 ZINC000879023512        1 TEMP              0 ****  ****    0 ROOT


##########                                Name:    ZINC001179023006
##########                DOCK_Rotatable_Bonds:                   3
##########                         Heavy_Atoms:                  25
##########                    Molecular_Weight:             340.465
##########                DOCK_Rotatable_Bonds:                   3
##########                       Formal_Charge:          -0.0100005
##########                     HBond_Acceptors:                   4
##########                        HBond_Donors:                   1
##########                         Heavy_Atoms:                  25
##########                          Grid_Score:          -27.736099
##########                     Grid_vdw_energy:          -27.817488
##########                      Grid_es_energy:            0.081388
##########           Internal_energy_repulsive:           28.784111

@<TRIPOS>MOLECULE
ZINC001179023006
 53 56 1 0 0
SMALL
USER_CHARGES


@<TRIPOS>ATOM
      1 C1        -14.3773   -1.9708   61.2473 C.3     1  ZINC001179023006   -0.1500
      2 C2        -13.8244   -1.0346   60.1710 C.3     1  ZINC001179023006   -0.1100
      3 C3        -12.2953   -1.0816   60.1908 C.3     1  ZINC001179023006   -0.1100
      4 C4        -11.7459   -2.4260   59.7886 C.2     1  ZINC001179023006    0.5400
      5 O5        -11.2341   -3.1454   60.6202 O.2     1  ZINC001179023006   -0.5400
      6 N6        -11.8234   -2.8292   58.5048 N.am    1  ZINC001179023006   -0.5900
      7 C7        -12.4458   -1.9722   57.4867 C.3     1  ZINC001179023006    0.1000
      8 C8        -13.5240   -2.7688   56.7557 C.3     1  ZINC001179023006   -0.1200
      9 C9        -12.9073   -4.0562   56.1894 C.3     1  ZINC001179023006   -0.0500
     10 C10       -12.3912   -4.9073   57.3592 C.3     1  ZINC001179023006   -0.1100
     11 C11       -11.2926   -4.1369   58.0966 C.3     1  ZINC001179023006    0.0900
     12 C12       -13.9803   -4.8357   55.4458 C.3     1  ZINC001179023006   -0.0800
     13 C13       -14.6076   -4.0157   54.3603 C.ar    1  ZINC001179023006   -0.0700
     14 C14       -15.9041   -3.5464   54.5464 C.ar    1  ZINC001179023006   -0.1100
     15 C15       -16.4873   -2.7361   53.5923 C.ar    1  ZINC001179023006   -0.1100
     16 C16       -15.7884   -2.3900   52.4511 C.ar    1  ZINC001179023006   -0.1200
     17 C17       -14.5045   -2.8698   52.2621 C.ar    1  ZINC001179023006   -0.1000
     18 C18       -13.9345   -3.6883   53.2208 C.ar    1  ZINC001179023006   -0.1100
     19 C19       -12.5469   -4.2371   53.0068 C.3     1  ZINC001179023006    0.1400
     20 N20       -11.6192   -3.7422   53.9996 N.am    1  ZINC001179023006   -0.7000
     21 C21       -11.7585   -3.6994   55.2997 C.2     1  ZINC001179023006    0.5200
     22 O22       -10.7791   -3.2972   55.8909 O.2     1  ZINC001179023006   -0.5500
     23 C23       -11.6784   -0.5264   61.4854 C.3     1  ZINC001179023006   -0.1200
     24 C24       -10.6002    0.1223   60.5985 C.3     1  ZINC001179023006   -0.1400
     25 C25       -11.6331    0.0981   59.4595 C.3     1  ZINC001179023006   -0.1300
     26 H26       -15.4666   -1.9665   61.2079 H       1  ZINC001179023006    0.0600
     27 H27       -14.0113   -2.9824   61.0720 H       1  ZINC001179023006    0.0500
     28 H28       -14.0480   -1.6304   62.2292 H       1  ZINC001179023006    0.0600
     29 H29       -14.1591   -0.0162   60.3684 H       1  ZINC001179023006    0.0700
     30 H30       -14.1851   -1.3524   59.1928 H       1  ZINC001179023006    0.0700
     31 H31       -12.8974   -1.1040   57.9665 H       1  ZINC001179023006    0.0900
     32 H32       -11.6899   -1.6453   56.7727 H       1  ZINC001179023006    0.0800
     33 H33       -13.9304   -2.1706   55.9402 H       1  ZINC001179023006    0.0800
     34 H34       -14.3219   -3.0236   57.4532 H       1  ZINC001179023006    0.0800
     35 H35       -11.9852   -5.8438   56.9768 H       1  ZINC001179023006    0.0800
     36 H36       -13.2109   -5.1192   58.0457 H       1  ZINC001179023006    0.0800
     37 H37       -10.4390   -3.9940   57.4341 H       1  ZINC001179023006    0.1200
     38 H38       -10.9830   -4.6970   58.9789 H       1  ZINC001179023006    0.0800
     39 H39       -13.5319   -5.7260   55.0048 H       1  ZINC001179023006    0.0800
     40 H40       -14.7523   -5.1407   56.1522 H       1  ZINC001179023006    0.0900
     41 H41       -16.4537   -3.8153   55.4364 H       1  ZINC001179023006    0.1200
     42 H42       -17.4934   -2.3717   53.7382 H       1  ZINC001179023006    0.1200
     43 H43       -16.2424   -1.7479   51.7107 H       1  ZINC001179023006    0.1300
     44 H44       -13.9515   -2.6074   51.3724 H       1  ZINC001179023006    0.1300
     45 H45       -12.1974   -3.9448   52.0166 H       1  ZINC001179023006    0.0900
     46 H46       -12.5818   -5.3251   53.0635 H       1  ZINC001179023006    0.0800
     47 H47       -10.7814   -3.3951   53.6554 H       1  ZINC001179023006    0.4000
     48 H48       -12.3147    0.1953   61.9977 H       1  ZINC001179023006    0.0900
     49 H49       -11.2916   -1.2983   62.1507 H       1  ZINC001179023006    0.0800
     50 H50        -9.7384   -0.5209   60.4202 H       1  ZINC001179023006    0.0800
     51 H51       -10.3200    1.1277   60.9126 H       1  ZINC001179023006    0.0700
     52 H52       -11.2096   -0.1703   58.4917 H       1  ZINC001179023006    0.0700
     53 H53       -12.2570    0.9910   59.4168 H       1  ZINC001179023006    0.0900
@<TRIPOS>BOND
     1     1     2    1
     2     1    26    1
     3     1    27    1
     4     1    28    1
     5     2     3    1
     6     2    29    1
     7     2    30    1
     8     3    25    1
     9     3     4    1
    10     3    23    1
    11     4     5    2
    12     4     6   am
    13     6    11    1
    14     6     7    1
    15     7     8    1
    16     7    31    1
    17     7    32    1
    18     8     9    1
    19     8    33    1
    20     8    34    1
    21     9    21    1
    22     9    10    1
    23     9    12    1
    24    10    11    1
    25    10    35    1
    26    10    36    1
    27    11    37    1
    28    11    38    1
    29    12    13    1
    30    12    39    1
    31    12    40    1
    32    13    18   ar
    33    13    14   ar
    34    14    15   ar
    35    14    41    1
    36    15    16   ar
    37    15    42    1
    38    16    17   ar
    39    16    43    1
    40    17    18   ar
    41    17    44    1
    42    18    19    1
    43    19    20    1
    44    19    45    1
    45    19    46    1
    46    20    21   am
    47    20    47    1
    48    21    22    2
    49    23    24    1
    50    23    48    1
    51    23    49    1
    52    24    25    1
    53    24    50    1
    54    24    51    1
    55    25    52    1
    56    25    53    1
@<TRIPOS>SUBSTRUCTURE
     1 ZINC001179023006        1 TEMP              0 ****  ****    0 ROOT


##########                                Name:    ZINC001318556452
##########                DOCK_Rotatable_Bonds:                   4
##########                         Heavy_Atoms:                  26
##########                    Molecular_Weight:             368.456
##########                DOCK_Rotatable_Bonds:                   4
##########                       Formal_Charge:          -0.0200005
##########                     HBond_Acceptors:                   6
##########                        HBond_Donors:                   1
##########                         Heavy_Atoms:                  26
##########                          Grid_Score:          -27.638153
##########                     Grid_vdw_energy:          -26.654375
##########                      Grid_es_energy:           -0.983778
##########           Internal_energy_repulsive:           17.936243

@<TRIPOS>MOLECULE
ZINC001318556452
 46 48 1 0 0
SMALL
USER_CHARGES


@<TRIPOS>ATOM
      1 C1        -13.4830    0.5175   54.1306 C.3     1  ZINC001318556452   -0.1300
      2 C2        -12.8030   -0.7942   53.8341 C.ar    1  ZINC001318556452   -0.1000
      3 C3        -12.7866   -1.2885   52.5449 C.ar    1  ZINC001318556452   -0.0500
      4 C4        -13.4496   -0.5154   51.4341 C.3     1  ZINC001318556452   -0.4100
      5 S5        -13.8401   -1.6392   50.0648 S.o     1  ZINC001318556452    1.2500
      6 C6        -14.6183   -0.5433   48.8466 C.3     1  ZINC001318556452   -0.4900
      7 O7        -14.7837   -2.6079   50.5014 O.2     1  ZINC001318556452   -0.8400
      8 C8        -12.1620   -2.4918   52.2719 C.ar    1  ZINC001318556452   -0.1200
      9 C9        -11.5529   -3.2045   53.2882 C.ar    1  ZINC001318556452   -0.1000
     10 C10       -11.5665   -2.7163   54.5802 C.ar    1  ZINC001318556452   -0.1200
     11 C11       -12.1871   -1.5049   54.8568 C.ar    1  ZINC001318556452    0.1400
     12 N12       -12.2023   -1.0078   56.1632 N.am    1  ZINC001318556452   -0.6600
     13 C13       -11.0592   -0.5799   56.7347 C.2     1  ZINC001318556452    0.5600
     14 O14       -10.0154   -0.6261   56.1144 O.2     1  ZINC001318556452   -0.5000
     15 C15       -11.0753   -0.0525   58.1203 C.2     1  ZINC001318556452   -0.0300
     16 C16       -11.6816    1.1371   58.4075 C.2     1  ZINC001318556452   -0.1600
     17 C17       -11.6813    1.6301   59.7827 C.2     1  ZINC001318556452    0.5300
     18 O18       -12.2218    2.6912   60.0397 O.2     1  ZINC001318556452   -0.5200
     19 N19       -11.0939    0.9303   60.7689 N.am    1  ZINC001318556452   -0.5200
     20 C20       -11.1162    1.4585   62.1352 C.3     1  ZINC001318556452    0.0600
     21 C21       -10.4714   -0.2743   60.5207 C.ar    1  ZINC001318556452    0.1800
     22 C22        -9.8689   -0.9836   61.5563 C.ar    1  ZINC001318556452   -0.1700
     23 C23        -9.2502   -2.1864   61.2941 C.ar    1  ZINC001318556452   -0.0600
     24 C24        -9.2210   -2.7004   60.0051 C.ar    1  ZINC001318556452   -0.1500
     25 C25        -9.8058   -2.0214   58.9738 C.ar    1  ZINC001318556452   -0.0600
     26 C26       -10.4440   -0.8020   59.2174 C.ar    1  ZINC001318556452   -0.1100
     27 H27       -12.7670    1.3316   54.0179 H       1  ZINC001318556452    0.0800
     28 H28       -14.3106    0.6629   53.4362 H       1  ZINC001318556452    0.0800
     29 H29       -13.8634    0.5070   55.1520 H       1  ZINC001318556452    0.0700
     30 H30       -14.3687   -0.0620   51.8053 H       1  ZINC001318556452    0.1000
     31 H31       -12.7755    0.2655   51.0823 H       1  ZINC001318556452    0.1300
     32 H32       -13.9149    0.2384   48.5595 H       1  ZINC001318556452    0.1100
     33 H33       -14.8994   -1.1206   47.9658 H       1  ZINC001318556452    0.1100
     34 H34       -15.5081   -0.0891   49.2826 H       1  ZINC001318556452    0.0800
     35 H35       -12.1503   -2.8760   51.2625 H       1  ZINC001318556452    0.1200
     36 H36       -11.0663   -4.1440   53.0716 H       1  ZINC001318556452    0.1300
     37 H37       -11.0909   -3.2736   55.3737 H       1  ZINC001318556452    0.1500
     38 H38       -13.0355   -0.9707   56.6584 H       1  ZINC001318556452    0.4100
     39 H39       -12.1570    1.7088   57.6243 H       1  ZINC001318556452    0.1600
     40 H40       -11.6454    2.4113   62.1479 H       1  ZINC001318556452    0.1000
     41 H41       -11.6253    0.7512   62.7899 H       1  ZINC001318556452    0.0800
     42 H42       -10.0941    1.6059   62.4844 H       1  ZINC001318556452    0.0800
     43 H43        -9.8862   -0.5917   62.5626 H       1  ZINC001318556452    0.1400
     44 H44        -8.7833   -2.7345   62.0992 H       1  ZINC001318556452    0.1300
     45 H45        -8.7317   -3.6445   59.8158 H       1  ZINC001318556452    0.1300
     46 H46        -9.7788   -2.4280   57.9735 H       1  ZINC001318556452    0.1700
@<TRIPOS>BOND
     1     1     2    1
     2     1    27    1
     3     1    28    1
     4     1    29    1
     5     2    11   ar
     6     2     3   ar
     7     3     4    1
     8     3     8   ar
     9     4     5    1
    10     4    30    1
    11     4    31    1
    12     5     6    1
    13     5     7    2
    14     6    32    1
    15     6    33    1
    16     6    34    1
    17     8     9   ar
    18     8    35    1
    19     9    10   ar
    20     9    36    1
    21    10    11   ar
    22    10    37    1
    23    11    12    1
    24    12    13   am
    25    12    38    1
    26    13    14    2
    27    13    15    1
    28    15    26    1
    29    15    16    2
    30    16    17    1
    31    16    39    1
    32    17    18    2
    33    17    19   am
    34    19    20    1
    35    19    21    1
    36    20    40    1
    37    20    41    1
    38    20    42    1
    39    21    26   ar
    40    21    22   ar
    41    22    23   ar
    42    22    43    1
    43    23    24   ar
    44    23    44    1
    45    24    25   ar
    46    24    45    1
    47    25    26   ar
    48    25    46    1
@<TRIPOS>SUBSTRUCTURE
     1 ZINC001318556452        1 TEMP              0 ****  ****    0 ROOT


##########                                Name:    ZINC001013196242
##########                DOCK_Rotatable_Bonds:                   5
##########                         Heavy_Atoms:                  24
##########                    Molecular_Weight:              349.86
##########                DOCK_Rotatable_Bonds:                   5
##########                       Formal_Charge:        -3.05474e-07
##########                     HBond_Acceptors:                   6
##########                        HBond_Donors:                   1
##########                         Heavy_Atoms:                  24
##########                          Grid_Score:          -27.584187
##########                     Grid_vdw_energy:          -27.395777
##########                      Grid_es_energy:           -0.188409
##########           Internal_energy_repulsive:           11.745250

@<TRIPOS>MOLECULE
ZINC001013196242
 48 51 1 0 0
SMALL
USER_CHARGES


@<TRIPOS>ATOM
      1 C1        -12.3122    1.0467   59.5794 C.3     1  ZINC001013196242   -0.1600
      2 C2        -10.9379    0.4590   59.2524 C.3     1  ZINC001013196242    0.1400
      3 H3        -10.3339    0.4028   60.1580 H       1  ZINC001013196242    0.0800
      4 C4        -10.2276    1.3381   58.2015 C.3     1  ZINC001013196242   -0.1400
      5 C5         -9.5157    0.2950   57.3000 C.3     1  ZINC001013196242    0.1300
      6 H6         -8.5682   -0.0182   57.7382 H       1  ZINC001013196242    0.1100
      7 N7         -9.3173    0.8193   55.9465 N.am    1  ZINC001013196242   -0.7200
      8 C8         -8.3370    1.7126   55.7068 C.2     1  ZINC001013196242    0.5400
      9 O9         -7.6181    2.0812   56.6114 O.2     1  ZINC001013196242   -0.5200
     10 C10        -8.1341    2.2532   54.3149 C.3     1  ZINC001013196242   -0.1400
     11 C11        -8.9699    1.5288   53.2450 C.3     1  ZINC001013196242   -0.0800
     12 C12       -10.0712    2.5557   53.5298 C.3     1  ZINC001013196242   -0.1600
     13 C13       -11.3100    2.8760   52.7009 C.3     1  ZINC001013196242   -0.1700
     14 C14       -11.4571    2.3242   54.1216 C.3     1  ZINC001013196242   -0.1400
     15 C15        -8.9723    3.5081   54.0134 C.3     1  ZINC001013196242   -0.0800
     16 C16       -10.5395   -0.8676   57.3015 C.3     1  ZINC001013196242    0.0800
     17 N17       -11.0933   -0.8824   58.6711 N.am    1  ZINC001013196242   -0.6000
     18 C18       -11.6490   -1.9474   59.2822 C.2     1  ZINC001013196242    0.6100
     19 O19       -12.0762   -1.8435   60.4170 O.2     1  ZINC001013196242   -0.5400
     20 C20       -11.7389   -3.2317   58.5795 C.2     1  ZINC001013196242   -0.0400
     21 C21       -12.7585   -3.6329   57.7424 C.2     1  ZINC001013196242   -0.1400
     22 C22       -12.4395   -4.9185   57.2926 C.2     1  ZINC001013196242   -0.1200
     23 Cl23      -13.3901   -5.8882   56.2111 Cl      1  ZINC001013196242   -0.0400
     24 C24       -11.2565   -5.2724   57.8508 C.2     1  ZINC001013196242    0.0400
     25 N25       -10.8179   -4.2533   58.6311 N.pl3   1  ZINC001013196242   -0.4000
     26 C26        -9.5749   -4.2447   59.4065 C.3     1  ZINC001013196242    0.0700
     27 H27       -12.8099    0.4180   60.3176 H       1  ZINC001013196242    0.0700
     28 H28       -12.1908    2.0527   59.9814 H       1  ZINC001013196242    0.0700
     29 H29       -12.9148    1.0884   58.6721 H       1  ZINC001013196242    0.0600
     30 H30       -10.9530    1.9137   57.6265 H       1  ZINC001013196242    0.0900
     31 H31        -9.5009    1.9965   58.6772 H       1  ZINC001013196242    0.0900
     32 H32        -9.8915    0.5235   55.2227 H       1  ZINC001013196242    0.4000
     33 H33        -7.0816    2.3580   54.0511 H       1  ZINC001013196242    0.1000
     34 H34        -8.5528    1.6022   52.2406 H       1  ZINC001013196242    0.1000
     35 H35        -9.2413    0.5093   53.5186 H       1  ZINC001013196242    0.0700
     36 H36       -11.5513    3.9269   52.5414 H       1  ZINC001013196242    0.1000
     37 H37       -11.5492    2.2075   51.8739 H       1  ZINC001013196242    0.0900
     38 H38       -11.7929    1.2928   54.2290 H       1  ZINC001013196242    0.0900
     39 H39       -11.7950    3.0123   54.8966 H       1  ZINC001013196242    0.1000
     40 H40        -9.2457    4.0754   54.9031 H       1  ZINC001013196242    0.0800
     41 H41        -8.5558    4.1325   53.2229 H       1  ZINC001013196242    0.0900
     42 H42       -11.3287   -0.6790   56.5738 H       1  ZINC001013196242    0.0800
     43 H43       -10.0407   -1.8124   57.0852 H       1  ZINC001013196242    0.1000
     44 H44       -13.6380   -3.0622   57.4832 H       1  ZINC001013196242    0.1600
     45 H45       -10.7445   -6.2107   57.6965 H       1  ZINC001013196242    0.1800
     46 H46        -8.7916   -3.7506   58.8317 H       1  ZINC001013196242    0.0800
     47 H47        -9.7335   -3.7072   60.3413 H       1  ZINC001013196242    0.1000
     48 H48        -9.2748   -5.2699   59.6232 H       1  ZINC001013196242    0.0900
@<TRIPOS>BOND
     1     1     2    1
     2     1    27    1
     3     1    28    1
     4     1    29    1
     5     2     3    1
     6     2    17    1
     7     2     4    1
     8     4     5    1
     9     4    30    1
    10     4    31    1
    11     5     6    1
    12     5     7    1
    13     5    16    1
    14     7     8   am
    15     7    32    1
    16     8     9    2
    17     8    10    1
    18    10    15    1
    19    10    11    1
    20    10    33    1
    21    11    12    1
    22    11    34    1
    23    11    35    1
    24    12    14    1
    25    12    13    1
    26    12    15    1
    27    13    14    1
    28    13    36    1
    29    13    37    1
    30    14    38    1
    31    14    39    1
    32    15    40    1
    33    15    41    1
    34    16    17    1
    35    16    42    1
    36    16    43    1
    37    17    18   am
    38    18    19    2
    39    18    20    1
    40    20    25    1
    41    20    21    2
    42    21    22    1
    43    21    44    1
    44    22    23    1
    45    22    24    2
    46    24    25    1
    47    24    45    1
    48    25    26    1
    49    26    46    1
    50    26    47    1
    51    26    48    1
@<TRIPOS>SUBSTRUCTURE
     1 ZINC001013196242        1 TEMP              0 ****  ****    0 ROOT


##########                                Name:    ZINC000345028113
##########                DOCK_Rotatable_Bonds:                   5
##########                         Heavy_Atoms:                  21
##########                    Molecular_Weight:             331.838
##########                DOCK_Rotatable_Bonds:                   5
##########                       Formal_Charge:         4.47035e-07
##########                     HBond_Acceptors:                   6
##########                        HBond_Donors:                   0
##########                         Heavy_Atoms:                  21
##########                          Grid_Score:          -27.545307
##########                     Grid_vdw_energy:          -27.380188
##########                      Grid_es_energy:           -0.165120
##########           Internal_energy_repulsive:           19.251839

@<TRIPOS>MOLECULE
ZINC000345028113
 40 41 1 0 0
SMALL
USER_CHARGES


@<TRIPOS>ATOM
      1 C1        -13.7078   -1.2398   52.0904 C.3     1  ZINC000345028113   -0.1700
      2 C2        -12.9516   -1.6395   53.3590 C.3     1  ZINC000345028113    0.1400
      3 H3        -13.6375   -2.1252   54.0529 H       1  ZINC000345028113    0.1100
      4 C4        -12.3605   -0.3880   54.0169 C.3     1  ZINC000345028113   -0.0700
      5 H5        -11.8537   -0.6659   54.9410 H       1  ZINC000345028113    0.0900
      6 C6        -13.4812    0.6069   54.3257 C.3     1  ZINC000345028113   -0.1400
      7 S7        -11.1686    0.3680   52.8720 S.3     1  ZINC000345028113   -0.2400
      8 C8        -10.0454   -1.0150   52.5131 C.3     1  ZINC000345028113   -0.1100
      9 C9        -10.8709   -2.2030   52.0074 C.3     1  ZINC000345028113    0.1000
     10 N10       -11.8719   -2.5650   53.0122 N.am    1  ZINC000345028113   -0.6100
     11 C11       -11.7986   -3.7634   53.6245 C.2     1  ZINC000345028113    0.5200
     12 O12       -10.9076   -4.5357   53.3409 O.2     1  ZINC000345028113   -0.5300
     13 C13       -12.8239   -4.1436   54.6614 C.3     1  ZINC000345028113   -0.1400
     14 C14       -12.5148   -3.4200   55.9736 C.3     1  ZINC000345028113    0.0700
     15 O15       -11.0997   -3.3621   56.1638 O.3     1  ZINC000345028113   -0.3000
     16 C16       -10.6569   -3.0206   57.4032 C.ar    1  ZINC000345028113    0.1300
     17 C17       -10.3463   -1.7002   57.6897 C.ar    1  ZINC000345028113   -0.1700
     18 C18        -9.8968   -1.3542   58.9500 C.ar    1  ZINC000345028113   -0.1100
     19 C19        -9.7565   -2.3251   59.9266 C.ar    1  ZINC000345028113    0.0800
     20 F20        -9.3174   -1.9849   61.1581 F       1  ZINC000345028113   -0.1300
     21 C21       -10.0661   -3.6447   59.6427 C.ar    1  ZINC000345028113   -0.1100
     22 C22       -10.5210   -3.9929   58.3848 C.ar    1  ZINC000345028113   -0.0400
     23 Cl23      -10.9093   -5.6470   58.0287 Cl      1  ZINC000345028113   -0.0400
     24 H24       -14.1283   -2.1299   51.6224 H       1  ZINC000345028113    0.0600
     25 H25       -14.5118   -0.5507   52.3486 H       1  ZINC000345028113    0.0800
     26 H26       -13.0219   -0.7540   51.3963 H       1  ZINC000345028113    0.0800
     27 H27       -14.1995    0.1460   55.0037 H       1  ZINC000345028113    0.0800
     28 H28       -13.0588    1.4961   54.7936 H       1  ZINC000345028113    0.0700
     29 H29       -13.9835    0.8871   53.3998 H       1  ZINC000345028113    0.0700
     30 H30        -9.3297   -0.7152   51.7475 H       1  ZINC000345028113    0.1200
     31 H31        -9.5143   -1.2995   53.4214 H       1  ZINC000345028113    0.0900
     32 H32       -11.3711   -1.9287   51.0787 H       1  ZINC000345028113    0.0900
     33 H33       -10.2123   -3.0528   51.8281 H       1  ZINC000345028113    0.1000
     34 H34       -13.8163   -3.8568   54.3134 H       1  ZINC000345028113    0.1100
     35 H35       -12.7934   -5.2209   54.8246 H       1  ZINC000345028113    0.1100
     36 H36       -12.9178   -2.4079   55.9340 H       1  ZINC000345028113    0.0800
     37 H37       -12.9711   -3.9605   56.8029 H       1  ZINC000345028113    0.0800
     38 H38       -10.4552   -0.9421   56.9282 H       1  ZINC000345028113    0.1500
     39 H39        -9.6545   -0.3256   59.1730 H       1  ZINC000345028113    0.1500
     40 H40        -9.9559   -4.4012   60.4056 H       1  ZINC000345028113    0.1500
@<TRIPOS>BOND
     1     1     2    1
     2     1    24    1
     3     1    25    1
     4     1    26    1
     5     2     3    1
     6     2    10    1
     7     2     4    1
     8     4     5    1
     9     4     6    1
    10     4     7    1
    11     6    27    1
    12     6    28    1
    13     6    29    1
    14     7     8    1
    15     8     9    1
    16     8    30    1
    17     8    31    1
    18     9    10    1
    19     9    32    1
    20     9    33    1
    21    10    11   am
    22    11    12    2
    23    11    13    1
    24    13    14    1
    25    13    34    1
    26    13    35    1
    27    14    15    1
    28    14    36    1
    29    14    37    1
    30    15    16    1
    31    16    22   ar
    32    16    17   ar
    33    17    18   ar
    34    17    38    1
    35    18    19   ar
    36    18    39    1
    37    19    20    1
    38    19    21   ar
    39    21    22   ar
    40    21    40    1
    41    22    23    1
@<TRIPOS>SUBSTRUCTURE
     1 ZINC000345028113        1 TEMP              0 ****  ****    0 ROOT


##########                                Name:    ZINC000828026236
##########                DOCK_Rotatable_Bonds:                   1
##########                         Heavy_Atoms:                  19
##########                    Molecular_Weight:             383.045
##########                DOCK_Rotatable_Bonds:                   1
##########                       Formal_Charge:                   0
##########                     HBond_Acceptors:                   5
##########                        HBond_Donors:                   0
##########                         Heavy_Atoms:                  19
##########                          Grid_Score:          -27.505009
##########                     Grid_vdw_energy:          -26.076324
##########                      Grid_es_energy:           -1.428684
##########           Internal_energy_repulsive:            4.804976

@<TRIPOS>MOLECULE
ZINC000828026236
 28 30 1 0 0
SMALL
USER_CHARGES


@<TRIPOS>ATOM
      1 N1        -11.3803    1.8781   59.7484 N.1     1  ZINC000828026236   -0.3800
      2 C2        -10.9132    1.3574   60.6434 C.1     1  ZINC000828026236    0.2600
      3 C3        -10.3243    0.7009   61.7716 C.ar    1  ZINC000828026236   -0.0500
      4 C4         -9.9320    1.4335   62.8975 C.ar    1  ZINC000828026236    0.0100
      5 C5         -9.3674    0.7513   63.9622 C.ar    1  ZINC000828026236   -0.1600
      6 Br6        -8.8186    1.6880   65.5106 Br      1  ZINC000828026236   -0.0100
      7 C7         -9.2084   -0.6210   63.8845 C.ar    1  ZINC000828026236    0.1800
      8 N8         -9.5851   -1.2932   62.8137 N.ar    1  ZINC000828026236   -0.5000
      9 C9        -10.1351   -0.6921   61.7708 C.ar    1  ZINC000828026236    0.3600
     10 N10       -10.5152   -1.4377   60.6681 N.3     1  ZINC000828026236   -0.4900
     11 C11       -11.9675   -1.6633   60.6598 C.3     1  ZINC000828026236    0.0500
     12 C12       -12.4062   -2.1529   59.2738 C.3     1  ZINC000828026236    0.1100
     13 N13       -11.5298   -3.2590   58.8798 N.pl3   1  ZINC000828026236   -0.4400
     14 C14       -11.7167   -4.1844   57.9002 C.2     1  ZINC000828026236   -0.0300
     15 Br15      -13.1988   -4.3098   56.7325 Br      1  ZINC000828026236    0.0200
     16 C16       -10.6376   -4.9957   57.9239 C.2     1  ZINC000828026236    0.0300
     17 N17        -9.8159   -4.5686   58.8978 N.2     1  ZINC000828026236   -0.4700
     18 C18       -10.3401   -3.5296   59.4743 C.2     1  ZINC000828026236    0.2300
     19 C19        -9.7781   -2.7120   60.6128 C.3     1  ZINC000828026236    0.1500
     20 H20       -10.0659    2.5046   62.9349 H       1  ZINC000828026236    0.1600
     21 H21        -8.7677   -1.1515   64.7156 H       1  ZINC000828026236    0.1800
     22 H22       -12.2221   -2.4147   61.4074 H       1  ZINC000828026236    0.0700
     23 H23       -12.4808   -0.7307   60.8944 H       1  ZINC000828026236    0.1100
     24 H24       -13.4389   -2.4991   59.3160 H       1  ZINC000828026236    0.1100
     25 H25       -12.3196   -1.3403   58.5524 H       1  ZINC000828026236    0.1000
     26 H26       -10.4650   -5.8408   57.2740 H       1  ZINC000828026236    0.1800
     27 H27        -8.7197   -2.5178   60.4392 H       1  ZINC000828026236    0.1200
     28 H28        -9.9049   -3.2517   61.5512 H       1  ZINC000828026236    0.1000
@<TRIPOS>BOND
     1     1     2    3
     2     2     3    1
     3     3     9   ar
     4     3     4   ar
     5     4     5   ar
     6     4    20    1
     7     5     6    1
     8     5     7   ar
     9     7     8   ar
    10     7    21    1
    11     8     9   ar
    12     9    10    1
    13    10    19    1
    14    10    11    1
    15    11    12    1
    16    11    22    1
    17    11    23    1
    18    12    13    1
    19    12    24    1
    20    12    25    1
    21    13    18    1
    22    13    14    1
    23    14    15    1
    24    14    16    2
    25    16    17    1
    26    16    26    1
    27    17    18    2
    28    18    19    1
    29    19    27    1
    30    19    28    1
@<TRIPOS>SUBSTRUCTURE
     1 ZINC000828026236        1 TEMP              0 ****  ****    0 ROOT


##########                                Name:    ZINC000656860804
##########                DOCK_Rotatable_Bonds:                   2
##########                         Heavy_Atoms:                  19
##########                    Molecular_Weight:             388.068
##########                DOCK_Rotatable_Bonds:                   2
##########                       Formal_Charge:          8.9407e-08
##########                     HBond_Acceptors:                   8
##########                        HBond_Donors:                   1
##########                         Heavy_Atoms:                  19
##########                          Grid_Score:          -27.502476
##########                     Grid_vdw_energy:          -26.479277
##########                      Grid_es_energy:           -1.023199
##########           Internal_energy_repulsive:           17.710732

@<TRIPOS>MOLECULE
ZINC000656860804
 28 29 1 0 0
SMALL
USER_CHARGES


@<TRIPOS>ATOM
      1 O1        -13.3840   -0.4529   63.1320 O.2     1  ZINC000656860804   -0.5400
      2 C2        -12.3630   -0.6872   62.5209 C.2     1  ZINC000656860804    0.5100
      3 C3        -12.4474   -1.5346   61.2807 C.3     1  ZINC000656860804    0.1100
      4 N4        -11.1764   -1.4343   60.5481 N.am    1  ZINC000656860804   -1.0000
      5 S5        -11.1423   -1.2665   58.9009 S.o2    1  ZINC000656860804    2.6900
      6 O6        -11.9660   -0.1501   58.5941 O.2     1  ZINC000656860804   -0.9200
      7 O7         -9.7769   -1.3539   58.5169 O.2     1  ZINC000656860804   -0.9300
      8 C8        -11.9430   -2.6788   58.2161 C.ar    1  ZINC000656860804   -0.6500
      9 C9        -13.1441   -2.5354   57.5478 C.ar    1  ZINC000656860804    0.0100
     10 C10       -13.7733   -3.6440   57.0099 C.ar    1  ZINC000656860804   -0.0400
     11 Cl11      -15.2818   -3.4638   56.1700 Cl      1  ZINC000656860804   -0.0200
     12 C12       -13.1992   -4.8970   57.1413 C.ar    1  ZINC000656860804    0.0200
     13 Cl13      -13.9877   -6.2885   56.4661 Cl      1  ZINC000656860804   -0.0100
     14 C14       -11.9969   -5.0397   57.8103 C.ar    1  ZINC000656860804   -0.0900
     15 C15       -11.3662   -3.9300   58.3426 C.ar    1  ZINC000656860804    0.0100
     16 Br16       -9.7226   -4.1249   59.2573 Br      1  ZINC000656860804    0.0100
     17 C17        -9.9351   -1.4885   61.3386 C.3     1  ZINC000656860804    0.0900
     18 C18        -9.9317   -0.3020   62.3044 C.3     1  ZINC000656860804    0.0800
     19 N19       -11.2177   -0.1772   62.9761 N.am    1  ZINC000656860804   -0.7100
     20 H20       -12.6271   -2.5729   61.5596 H       1  ZINC000656860804    0.1200
     21 H21       -13.2616   -1.1783   60.6497 H       1  ZINC000656860804    0.1200
     22 H22       -13.5919   -1.5579   57.4459 H       1  ZINC000656860804    0.1700
     23 H23       -11.5489   -6.0169   57.9134 H       1  ZINC000656860804    0.1700
     24 H24        -9.8981   -2.4211   61.9017 H       1  ZINC000656860804    0.1000
     25 H25        -9.0731   -1.4248   60.6746 H       1  ZINC000656860804    0.1200
     26 H26        -9.1484   -0.4471   63.0483 H       1  ZINC000656860804    0.1000
     27 H27        -9.7315    0.6133   61.7474 H       1  ZINC000656860804    0.0800
     28 H28       -11.2422    0.3056   63.8171 H       1  ZINC000656860804    0.4000
@<TRIPOS>BOND
     1     1     2    2
     2     2    19   am
     3     2     3    1
     4     3     4    1
     5     3    20    1
     6     3    21    1
     7     4     5   am
     8     4    17    1
     9     5     6    2
    10     5     7    2
    11     5     8    1
    12     8    15   ar
    13     8     9   ar
    14     9    10   ar
    15     9    22    1
    16    10    11    1
    17    10    12   ar
    18    12    13    1
    19    12    14   ar
    20    14    15   ar
    21    14    23    1
    22    15    16    1
    23    17    18    1
    24    17    24    1
    25    17    25    1
    26    18    19    1
    27    18    26    1
    28    18    27    1
    29    19    28    1
@<TRIPOS>SUBSTRUCTURE
     1 ZINC000656860804        1 TEMP              0 ****  ****    0 ROOT


##########                                Name:    ZINC000004040798
##########                DOCK_Rotatable_Bonds:                   3
##########                         Heavy_Atoms:                  22
##########                    Molecular_Weight:             361.151
##########                DOCK_Rotatable_Bonds:                   3
##########                       Formal_Charge:           0.0200003
##########                     HBond_Acceptors:                   6
##########                        HBond_Donors:                   1
##########                         Heavy_Atoms:                  22
##########                          Grid_Score:          -27.479887
##########                     Grid_vdw_energy:          -27.140953
##########                      Grid_es_energy:           -0.338934
##########           Internal_energy_repulsive:            1.812201

@<TRIPOS>MOLECULE
ZINC000004040798
 31 33 1 0 0
SMALL
USER_CHARGES


@<TRIPOS>ATOM
      1 O1         -1.2581    0.0195   46.8794 O.2     1  ZINC000004040798   -0.4800
      2 C2         -1.3679    0.9214   46.0701 C.2     1  ZINC000004040798    0.6100
      3 N3         -1.9260    2.0920   46.4372 N.am    1  ZINC000004040798   -0.6600
      4 C4         -2.3840    2.2681   47.7468 C.ar    1  ZINC000004040798    0.2300
      5 C5         -3.5737    1.6787   48.1531 C.ar    1  ZINC000004040798   -0.1300
      6 C6         -4.0235    1.8547   49.4473 C.ar    1  ZINC000004040798   -0.0100
      7 C7         -3.2907    2.6167   50.3383 C.ar    1  ZINC000004040798   -0.0600
      8 N8         -3.7761    2.8027   51.7242 N.pl3   1  ZINC000004040798    0.0300
      9 O9         -4.8200    2.2849   52.0786 O.2     1  ZINC000004040798   -0.1500
     10 O10        -3.1316    3.4737   52.5103 O.2     1  ZINC000004040798   -0.1500
     11 C11        -2.1049    3.2050   49.9378 C.ar    1  ZINC000004040798    0.0000
     12 C12        -1.6464    3.0289   48.6464 C.ar    1  ZINC000004040798   -0.1400
     13 Br13       -0.0250    3.8336   48.0993 Br      1  ZINC000004040798    0.0000
     14 C14        -0.8867    0.7364   44.6942 C.2     1  ZINC000004040798   -0.0500
     15 C15        -1.3329   -0.2128   43.8311 C.2     1  ZINC000004040798   -0.0800
     16 C16        -0.5784   -0.0213   42.5930 C.ar    1  ZINC000004040798   -0.1500
     17 C17        -0.5674   -0.6600   41.3509 C.ar    1  ZINC000004040798   -0.0500
     18 C18         0.2829   -0.2252   40.3733 C.ar    1  ZINC000004040798   -0.1400
     19 C19         1.1346    0.8454   40.6071 C.ar    1  ZINC000004040798   -0.0700
     20 C20         1.1391    1.4891   41.8259 C.ar    1  ZINC000004040798   -0.1100
     21 C21         0.2829    1.0652   42.8354 C.ar    1  ZINC000004040798    0.0800
     22 O22         0.0610    1.4876   44.0954 O.3     1  ZINC000004040798   -0.1900
     23 H23        -2.0098    2.8124   45.7930 H       1  ZINC000004040798    0.4300
     24 H24        -4.1472    1.0836   47.4577 H       1  ZINC000004040798    0.1800
     25 H25        -4.9491    1.3967   49.7635 H       1  ZINC000004040798    0.1700
     26 H26        -1.5347    3.7997   50.6362 H       1  ZINC000004040798    0.1700
     27 H27        -2.0908   -0.9584   44.0209 H       1  ZINC000004040798    0.1800
     28 H28        -1.2277   -1.4939   41.1640 H       1  ZINC000004040798    0.1400
     29 H29         0.2923   -0.7182   39.4125 H       1  ZINC000004040798    0.1400
     30 H30         1.8017    1.1776   39.8254 H       1  ZINC000004040798    0.1400
     31 H31         1.8062    2.3212   41.9961 H       1  ZINC000004040798    0.1400
@<TRIPOS>BOND
     1     1     2    2
     2     2     3   am
     3     2    14    1
     4     3     4    1
     5     3    23    1
     6     4    12   ar
     7     4     5   ar
     8     5     6   ar
     9     5    24    1
    10     6     7   ar
    11     6    25    1
    12     7     8    1
    13     7    11   ar
    14     8     9    2
    15     8    10    2
    16    11    12   ar
    17    11    26    1
    18    12    13    1
    19    14    22    1
    20    14    15    2
    21    15    16    1
    22    15    27    1
    23    16    21   ar
    24    16    17   ar
    25    17    18   ar
    26    17    28    1
    27    18    19   ar
    28    18    29    1
    29    19    20   ar
    30    19    30    1
    31    20    21   ar
    32    20    31    1
    33    21    22    1
@<TRIPOS>SUBSTRUCTURE
     1 ZINC000004040798        1 TEMP              0 ****  ****    0 ROOT


##########                                Name:    ZINC000371438955
##########                DOCK_Rotatable_Bonds:                   4
##########                         Heavy_Atoms:                  25
##########                    Molecular_Weight:             387.499
##########                DOCK_Rotatable_Bonds:                   4
##########                       Formal_Charge:          -0.0299995
##########                     HBond_Acceptors:                   9
##########                        HBond_Donors:                   1
##########                         Heavy_Atoms:                  25
##########                          Grid_Score:          -27.149605
##########                     Grid_vdw_energy:          -24.410257
##########                      Grid_es_energy:           -2.739348
##########           Internal_energy_repulsive:           30.724485

@<TRIPOS>MOLECULE
ZINC000371438955
 47 49 1 0 0
SMALL
USER_CHARGES


@<TRIPOS>ATOM
      1 C1         -9.8055   -3.4642   60.7529 C.3     1  ZINC000371438955   -0.6800
      2 S2         -9.8328   -2.2073   59.4452 S.o2    1  ZINC000371438955    2.6000
      3 O3         -8.9947   -1.1123   59.7886 O.2     1  ZINC000371438955   -0.9500
      4 O4         -9.7523   -2.8182   58.1647 O.2     1  ZINC000371438955   -0.9500
      5 N5        -11.3653   -1.5827   59.5042 N.am    1  ZINC000371438955   -0.9900
      6 C6        -11.7278   -0.5445   58.5827 C.3     1  ZINC000371438955    0.1300
      7 C7        -11.3159    0.8025   59.1999 C.3     1  ZINC000371438955   -0.1700
      8 C8        -12.2713    1.2496   60.2257 C.3     1  ZINC000371438955    0.1400
      9 N9        -12.3842    0.2362   61.3013 N.am    1  ZINC000371438955   -0.6200
     10 C10       -11.7559    0.4302   62.4778 C.2     1  ZINC000371438955    0.7100
     11 O11       -11.8482   -0.4007   63.3605 O.2     1  ZINC000371438955   -0.5800
     12 N12       -11.0254    1.5454   62.6757 N.am    1  ZINC000371438955   -0.7400
     13 C13       -10.3424    1.7563   63.9545 C.3     1  ZINC000371438955    0.2000
     14 H14        -9.9177    2.7602   63.9608 H       1  ZINC000371438955    0.1100
     15 C15        -9.2117    0.7494   64.0736 C.3     1  ZINC000371438955   -0.1300
     16 C16        -8.4654    0.9907   65.3933 C.3     1  ZINC000371438955   -0.1100
     17 S17        -9.5433    0.4156   66.7371 S.3     1  ZINC000371438955   -0.1000
     18 C18       -11.1043    1.1166   66.3064 C.ar    1  ZINC000371438955   -0.1100
     19 C19       -12.1097    1.1108   67.2774 C.ar    1  ZINC000371438955    0.1100
     20 F20       -11.8589    0.5882   68.4977 F       1  ZINC000371438955   -0.1300
     21 C21       -13.3556    1.6344   67.0010 C.ar    1  ZINC000371438955   -0.1300
     22 C22       -13.6084    2.1657   65.7490 C.ar    1  ZINC000371438955   -0.1000
     23 C23       -12.6179    2.1751   64.7914 C.ar    1  ZINC000371438955   -0.1000
     24 C24       -11.3515    1.6548   65.0603 C.ar    1  ZINC000371438955   -0.0800
     25 C25       -13.1629   -0.9522   61.0912 C.3     1  ZINC000371438955    0.1000
     26 C26       -12.3244   -2.1207   60.5074 C.3     1  ZINC000371438955    0.0900
     27 H27       -10.0166   -2.9939   61.7133 H       1  ZINC000371438955    0.1300
     28 H28       -10.5617   -4.2212   60.5451 H       1  ZINC000371438955    0.1300
     29 H29        -8.8219   -3.9327   60.7861 H       1  ZINC000371438955    0.1300
     30 H30       -11.2054   -0.6920   57.6374 H       1  ZINC000371438955    0.0800
     31 H31       -12.8047   -0.5595   58.4156 H       1  ZINC000371438955    0.0800
     32 H32       -10.3305    0.6986   59.6538 H       1  ZINC000371438955    0.0800
     33 H33       -11.2645    1.5534   58.4113 H       1  ZINC000371438955    0.0900
     34 H34       -11.9277    2.1918   60.6524 H       1  ZINC000371438955    0.0900
     35 H35       -13.2489    1.3995   59.7673 H       1  ZINC000371438955    0.0700
     36 H36       -10.9518    2.2083   61.9714 H       1  ZINC000371438955    0.4000
     37 H37        -9.6205   -0.2610   64.0652 H       1  ZINC000371438955    0.0900
     38 H38        -8.5235    0.8730   63.2374 H       1  ZINC000371438955    0.1000
     39 H39        -7.5321    0.4277   65.3998 H       1  ZINC000371438955    0.1200
     40 H40        -8.2587    2.0543   65.5132 H       1  ZINC000371438955    0.1000
     41 H41       -14.1277    1.6292   67.7559 H       1  ZINC000371438955    0.1400
     42 H42       -14.5825    2.5730   65.5221 H       1  ZINC000371438955    0.1300
     43 H43       -12.8258    2.5906   63.8164 H       1  ZINC000371438955    0.1400
     44 H44       -13.5909   -1.2662   62.0432 H       1  ZINC000371438955    0.0800
     45 H45       -13.9743   -0.7245   60.3999 H       1  ZINC000371438955    0.0900
     46 H46       -12.9886   -2.8431   60.0330 H       1  ZINC000371438955    0.0800
     47 H47       -11.7714   -2.6079   61.3105 H       1  ZINC000371438955    0.1000
@<TRIPOS>BOND
     1     1     2    1
     2     1    27    1
     3     1    28    1
     4     1    29    1
     5     2     3    2
     6     2     4    2
     7     2     5   am
     8     5    26    1
     9     5     6    1
    10     6     7    1
    11     6    30    1
    12     6    31    1
    13     7     8    1
    14     7    32    1
    15     7    33    1
    16     8     9    1
    17     8    34    1
    18     8    35    1
    19     9    10   am
    20     9    25    1
    21    10    11    2
    22    10    12   am
    23    12    13    1
    24    12    36    1
    25    13    14    1
    26    13    24    1
    27    13    15    1
    28    15    16    1
    29    15    37    1
    30    15    38    1
    31    16    17    1
    32    16    39    1
    33    16    40    1
    34    17    18    1
    35    18    24   ar
    36    18    19   ar
    37    19    20    1
    38    19    21   ar
    39    21    22   ar
    40    21    41    1
    41    22    23   ar
    42    22    42    1
    43    23    24   ar
    44    23    43    1
    45    25    26    1
    46    25    44    1
    47    25    45    1
    48    26    46    1
    49    26    47    1
@<TRIPOS>SUBSTRUCTURE
     1 ZINC000371438955        1 TEMP              0 ****  ****    0 ROOT


##########                                Name:    ZINC000931749147
##########                DOCK_Rotatable_Bonds:                   5
##########                         Heavy_Atoms:                  25
##########                    Molecular_Weight:             354.397
##########                DOCK_Rotatable_Bonds:                   5
##########                       Formal_Charge:        -4.76837e-07
##########                     HBond_Acceptors:                   7
##########                        HBond_Donors:                   1
##########                         Heavy_Atoms:                  25
##########                          Grid_Score:          -27.032967
##########                     Grid_vdw_energy:          -27.418703
##########                      Grid_es_energy:            0.385736
##########           Internal_energy_repulsive:           82.712585

@<TRIPOS>MOLECULE
ZINC000931749147
 49 51 1 0 0
SMALL
USER_CHARGES


@<TRIPOS>ATOM
      1 C1        -15.3985   -1.6390   60.8110 C.3     1  ZINC000931749147   -0.1100
      2 C2        -13.9040   -1.5721   60.9930 C.ar    1  ZINC000931749147   -0.1300
      3 C3        -13.0735   -2.3708   60.2190 C.ar    1  ZINC000931749147    0.1800
      4 N4        -13.6235   -3.2394   59.2681 N.am    1  ZINC000931749147   -0.6800
      5 C5        -13.5366   -2.9443   57.9559 C.2     1  ZINC000931749147    0.7100
      6 O6        -12.9807   -1.9240   57.5977 O.2     1  ZINC000931749147   -0.5500
      7 N7        -14.0659   -3.7802   57.0407 N.am    1  ZINC000931749147   -0.6200
      8 C8        -14.7433   -5.0207   57.4500 C.3     1  ZINC000931749147    0.0700
      9 C9        -14.1584   -6.1817   56.6376 C.3     1  ZINC000931749147    0.0500
     10 O10       -14.2137   -5.8575   55.2463 O.3     1  ZINC000931749147   -0.3700
     11 C11       -13.4360   -4.7150   54.8803 C.3     1  ZINC000931749147    0.0500
     12 C12       -13.9889   -3.4763   55.6029 C.3     1  ZINC000931749147    0.1300
     13 H13       -14.9809   -3.2393   55.2186 H       1  ZINC000931749147    0.0900
     14 C14       -13.0519   -2.2877   55.3784 C.3     1  ZINC000931749147   -0.1100
     15 C15       -12.7678   -2.1379   53.8825 C.3     1  ZINC000931749147   -0.1000
     16 C16       -12.8391   -0.6581   53.4931 C.3     1  ZINC000931749147   -0.1500
     17 C17       -12.4764   -0.5098   52.0132 C.3     1  ZINC000931749147    0.0600
     18 O18       -11.1733   -1.0513   51.7868 O.3     1  ZINC000931749147   -0.3800
     19 C19       -11.0594   -2.4434   52.0887 C.3     1  ZINC000931749147    0.0600
     20 C20       -11.3651   -2.6693   53.5716 C.3     1  ZINC000931749147   -0.1500
     21 C21       -11.6967   -2.3074   60.3885 C.ar    1  ZINC000931749147   -0.1200
     22 C22       -11.1550   -1.4501   61.3263 C.ar    1  ZINC000931749147   -0.1100
     23 C23       -11.9832   -0.6535   62.0981 C.ar    1  ZINC000931749147    0.0500
     24 F24       -11.4512    0.1844   63.0147 F       1  ZINC000931749147   -0.1300
     25 C25       -13.3582   -0.7103   61.9273 C.ar    1  ZINC000931749147    0.0900
     26 F26       -14.1653    0.0677   62.6813 F       1  ZINC000931749147   -0.1200
     27 H27       -15.7052   -0.9166   60.0548 H       1  ZINC000931749147    0.0800
     28 H28       -15.6809   -2.6420   60.4912 H       1  ZINC000931749147    0.0700
     29 H29       -15.8902   -1.4071   61.7558 H       1  ZINC000931749147    0.0800
     30 H30       -14.0670   -4.0535   59.5537 H       1  ZINC000931749147    0.4100
     31 H31       -14.5772   -5.1962   58.5129 H       1  ZINC000931749147    0.0800
     32 H32       -15.8122   -4.9373   57.2538 H       1  ZINC000931749147    0.0900
     33 H33       -13.1219   -6.3464   56.9322 H       1  ZINC000931749147    0.0600
     34 H34       -14.7386   -7.0854   56.8242 H       1  ZINC000931749147    0.1100
     35 H35       -12.3970   -4.8744   55.1684 H       1  ZINC000931749147    0.0600
     36 H36       -13.4966   -4.5636   53.8025 H       1  ZINC000931749147    0.1100
     37 H37       -13.5227   -1.3783   55.7517 H       1  ZINC000931749147    0.1100
     38 H38       -12.1160   -2.4573   55.9108 H       1  ZINC000931749147    0.0700
     39 H39       -13.5061   -2.7022   53.3128 H       1  ZINC000931749147    0.0700
     40 H40       -13.8499   -0.2860   53.6594 H       1  ZINC000931749147    0.0700
     41 H41       -12.1355   -0.0876   54.0995 H       1  ZINC000931749147    0.0700
     42 H42       -13.2039   -1.0474   51.4050 H       1  ZINC000931749147    0.0500
     43 H43       -12.4838    0.5456   51.7410 H       1  ZINC000931749147    0.0900
     44 H44       -11.7685   -3.0061   51.4814 H       1  ZINC000931749147    0.0500
     45 H45       -10.0461   -2.7808   51.8709 H       1  ZINC000931749147    0.0900
     46 H46       -10.6319   -2.1394   54.1796 H       1  ZINC000931749147    0.0700
     47 H47       -11.3220   -3.7355   53.7941 H       1  ZINC000931749147    0.0700
     48 H48       -11.0494   -2.9286   59.7872 H       1  ZINC000931749147    0.1800
     49 H49       -10.0841   -1.4013   61.4578 H       1  ZINC000931749147    0.1500
@<TRIPOS>BOND
     1     1     2    1
     2     1    27    1
     3     1    28    1
     4     1    29    1
     5     2    25   ar
     6     2     3   ar
     7     3     4    1
     8     3    21   ar
     9     4     5   am
    10     4    30    1
    11     5     6    2
    12     5     7   am
    13     7    12    1
    14     7     8    1
    15     8     9    1
    16     8    31    1
    17     8    32    1
    18     9    10    1
    19     9    33    1
    20     9    34    1
    21    10    11    1
    22    11    12    1
    23    11    35    1
    24    11    36    1
    25    12    13    1
    26    12    14    1
    27    14    15    1
    28    14    37    1
    29    14    38    1
    30    15    20    1
    31    15    16    1
    32    15    39    1
    33    16    17    1
    34    16    40    1
    35    16    41    1
    36    17    18    1
    37    17    42    1
    38    17    43    1
    39    18    19    1
    40    19    20    1
    41    19    44    1
    42    19    45    1
    43    20    46    1
    44    20    47    1
    45    21    22   ar
    46    21    48    1
    47    22    23   ar
    48    22    49    1
    49    23    24    1
    50    23    25   ar
    51    25    26    1
@<TRIPOS>SUBSTRUCTURE
     1 ZINC000931749147        1 TEMP              0 ****  ****    0 ROOT


##########                                Name:    ZINC001076281847
##########                DOCK_Rotatable_Bonds:                   4
##########                         Heavy_Atoms:                  24
##########                    Molecular_Weight:             362.883
##########                DOCK_Rotatable_Bonds:                   4
##########                       Formal_Charge:         -0.00999959
##########                     HBond_Acceptors:                   7
##########                        HBond_Donors:                   0
##########                         Heavy_Atoms:                  24
##########                          Grid_Score:          -26.908670
##########                     Grid_vdw_energy:          -27.223131
##########                      Grid_es_energy:            0.314461
##########           Internal_energy_repulsive:            7.160858

@<TRIPOS>MOLECULE
ZINC001076281847
 43 46 1 0 0
SMALL
USER_CHARGES


@<TRIPOS>ATOM
      1 C1        -11.3765   -3.6533   52.3261 C.3     1  ZINC001076281847   -0.0900
      2 C2        -12.2277   -3.6003   53.5686 C.2     1  ZINC001076281847    0.1400
      3 N3        -13.5186   -3.4538   53.5037 N.2     1  ZINC001076281847   -0.4600
      4 S4        -14.1015   -3.4433   55.0964 S.3     1  ZINC001076281847    0.2500
      5 C5        -12.5638   -3.6406   55.8425 C.2     1  ZINC001076281847   -0.2100
      6 C6        -12.2700   -3.7240   57.3183 C.3     1  ZINC001076281847    0.1200
      7 N7        -10.8807   -3.3152   57.5648 N.3     1  ZINC001076281847   -0.5000
      8 C8        -10.3963   -3.8417   58.8503 C.3     1  ZINC001076281847    0.0300
      9 C9         -9.5376   -2.7342   59.4898 C.3     1  ZINC001076281847   -0.1000
     10 H10        -8.4701   -2.8522   59.3043 H       1  ZINC001076281847    0.1200
     11 C11        -9.8968   -2.6503   60.9967 C.3     1  ZINC001076281847   -0.1300
     12 C12       -11.2849   -1.9651   60.9529 C.3     1  ZINC001076281847    0.1000
     13 N13       -11.1867   -0.9846   59.8567 N.am    1  ZINC001076281847   -0.6000
     14 C14       -11.9295    0.1334   59.7354 C.2     1  ZINC001076281847    0.5700
     15 O15       -11.7631    0.8734   58.7860 O.2     1  ZINC001076281847   -0.4900
     16 C16       -12.9484    0.4600   60.7590 C.ar    1  ZINC001076281847   -0.0800
     17 C17       -14.0656   -0.3592   60.9479 C.ar    1  ZINC001076281847   -0.1800
     18 C18       -14.9914   -0.0174   61.9145 C.ar    1  ZINC001076281847    0.1000
     19 N19       -14.8328    1.0630   62.6527 N.ar    1  ZINC001076281847   -0.4500
     20 C20       -13.7955    1.8630   62.5085 C.ar    1  ZINC001076281847    0.1100
     21 C21       -12.8172    1.5942   61.5686 C.ar    1  ZINC001076281847   -0.0500
     22 Cl22      -11.4542    2.6540   61.3869 Cl      1  ZINC001076281847   -0.0100
     23 C23       -10.1320   -1.4264   58.9009 C.3     1  ZINC001076281847    0.1000
     24 H24        -9.3721   -0.6564   58.7662 H       1  ZINC001076281847    0.1100
     25 C25       -10.7543   -1.8501   57.5633 C.3     1  ZINC001076281847    0.0200
     26 C26       -11.6756   -3.7104   54.8264 C.2     1  ZINC001076281847   -0.1800
     27 H27       -11.2214   -4.6925   52.0361 H       1  ZINC001076281847    0.0700
     28 H28       -11.8793   -3.1217   51.5183 H       1  ZINC001076281847    0.0800
     29 H29       -10.4130   -3.1841   52.5254 H       1  ZINC001076281847    0.0900
     30 H30       -12.9452   -3.0626   57.8611 H       1  ZINC001076281847    0.1000
     31 H31       -12.4131   -4.7491   57.6598 H       1  ZINC001076281847    0.1000
     32 H32       -11.2405   -4.0794   59.4977 H       1  ZINC001076281847    0.0600
     33 H33        -9.7913   -4.7330   58.6839 H       1  ZINC001076281847    0.0900
     34 H34        -9.9665   -3.6449   61.4370 H       1  ZINC001076281847    0.0900
     35 H35        -9.1755   -2.0363   61.5360 H       1  ZINC001076281847    0.0800
     36 H36       -12.0629   -2.6977   60.7383 H       1  ZINC001076281847    0.0800
     37 H37       -11.4883   -1.4597   61.8969 H       1  ZINC001076281847    0.0800
     38 H38       -14.2030   -1.2460   60.3468 H       1  ZINC001076281847    0.1800
     39 H39       -15.8577   -0.6441   62.0671 H       1  ZINC001076281847    0.1700
     40 H40       -13.7061    2.7378   63.1356 H       1  ZINC001076281847    0.1700
     41 H41       -10.1200   -1.5202   56.7406 H       1  ZINC001076281847    0.1000
     42 H42       -11.7466   -1.4104   57.4627 H       1  ZINC001076281847    0.0700
     43 H43       -10.6151   -3.8359   54.9878 H       1  ZINC001076281847    0.1400
@<TRIPOS>BOND
     1     1     2    1
     2     1    27    1
     3     1    28    1
     4     1    29    1
     5     2    26    1
     6     2     3    2
     7     3     4    1
     8     4     5    1
     9     5     6    1
    10     5    26    2
    11     6     7    1
    12     6    30    1
    13     6    31    1
    14     7    25    1
    15     7     8    1
    16     8     9    1
    17     8    32    1
    18     8    33    1
    19     9    10    1
    20     9    23    1
    21     9    11    1
    22    11    12    1
    23    11    34    1
    24    11    35    1
    25    12    13    1
    26    12    36    1
    27    12    37    1
    28    13    14   am
    29    13    23    1
    30    14    15    2
    31    14    16    1
    32    16    21   ar
    33    16    17   ar
    34    17    18   ar
    35    17    38    1
    36    18    19   ar
    37    18    39    1
    38    19    20   ar
    39    20    21   ar
    40    20    40    1
    41    21    22    1
    42    23    24    1
    43    23    25    1
    44    25    41    1
    45    25    42    1
    46    26    43    1
@<TRIPOS>SUBSTRUCTURE
     1 ZINC001076281847        1 TEMP              0 ****  ****    0 ROOT


##########                                Name:    ZINC001211202056
##########                DOCK_Rotatable_Bonds:                   4
##########                         Heavy_Atoms:                  23
##########                    Molecular_Weight:             386.181
##########                DOCK_Rotatable_Bonds:                   4
##########                       Formal_Charge:           0.0199999
##########                     HBond_Acceptors:                  11
##########                        HBond_Donors:                   3
##########                         Heavy_Atoms:                  23
##########                          Grid_Score:          -26.437609
##########                     Grid_vdw_energy:          -26.073231
##########                      Grid_es_energy:           -0.364378
##########           Internal_energy_repulsive:            7.399978

@<TRIPOS>MOLECULE
ZINC001211202056
 31 32 1 0 0
SMALL
USER_CHARGES


@<TRIPOS>ATOM
      1 N1        -15.6271   -4.5179   59.1500 N.pl3   1  ZINC001211202056   -0.8500
      2 C2        -14.6092   -3.7567   58.5688 C.ar    1  ZINC001211202056    0.2900
      3 C3        -14.0202   -4.1729   57.3825 C.ar    1  ZINC001211202056   -0.2000
      4 C4        -13.0141   -3.4182   56.8105 C.ar    1  ZINC001211202056    0.0400
      5 C5        -12.5931   -2.2499   57.4179 C.ar    1  ZINC001211202056   -0.7300
      6 S6        -11.3097   -1.2910   56.6844 S.o2    1  ZINC001211202056    2.6900
      7 O7        -10.9792   -1.9323   55.4602 O.2     1  ZINC001211202056   -0.9400
      8 O8        -11.7269    0.0651   56.7635 O.2     1  ZINC001211202056   -0.9300
      9 N9         -9.9776   -1.4280   57.6586 N.am    1  ZINC001211202056   -1.0500
     10 C10       -10.0396   -1.0085   58.9905 C.ar    1  ZINC001211202056    0.1600
     11 C11       -10.2877    0.3257   59.3000 C.ar    1  ZINC001211202056   -0.1200
     12 C12       -10.3402    0.6933   60.6353 C.ar    1  ZINC001211202056   -0.0800
     13 C13       -10.1463   -0.2679   61.6087 C.ar    1  ZINC001211202056    0.0400
     14 C14       -10.2021    0.1254   63.0624 C.3     1  ZINC001211202056    0.5300
     15 F15        -9.4981   -0.8116   63.8263 F       1  ZINC001211202056   -0.1700
     16 F16        -9.6246    1.3891   63.2262 F       1  ZINC001211202056   -0.1600
     17 F17       -11.5354    0.1639   63.4842 F       1  ZINC001211202056   -0.1700
     18 N18        -9.9132   -1.5251   61.2838 N.ar    1  ZINC001211202056   -0.4100
     19 C19        -9.8598   -1.9188   60.0264 C.ar    1  ZINC001211202056    0.1600
     20 Cl20       -9.5499   -3.5874   59.6605 Cl      1  ZINC001211202056    0.0000
     21 C21       -13.1773   -1.8317   58.5999 C.ar    1  ZINC001211202056    0.0400
     22 C22       -14.1881   -2.5783   59.1743 C.ar    1  ZINC001211202056   -0.1400
     23 Cl23      -14.9211   -2.0530   60.6578 Cl      1  ZINC001211202056   -0.0500
     24 H24       -16.0407   -4.2241   59.9768 H       1  ZINC001211202056    0.4100
     25 H25       -15.9227   -5.3379   58.7245 H       1  ZINC001211202056    0.4100
     26 H26       -14.3478   -5.0857   56.9074 H       1  ZINC001211202056    0.1400
     27 H27       -12.5556   -3.7416   55.8876 H       1  ZINC001211202056    0.1500
     28 H28        -9.1543   -1.7995   57.3049 H       1  ZINC001211202056    0.4400
     29 H29       -10.4354    1.0566   58.5186 H       1  ZINC001211202056    0.2000
     30 H30       -10.5304    1.7198   60.9118 H       1  ZINC001211202056    0.1700
     31 H31       -12.8461   -0.9185   59.0718 H       1  ZINC001211202056    0.1500
@<TRIPOS>BOND
     1     1     2    1
     2     1    24    1
     3     1    25    1
     4     2    22   ar
     5     2     3   ar
     6     3     4   ar
     7     3    26    1
     8     4     5   ar
     9     4    27    1
    10     5     6    1
    11     5    21   ar
    12     6     7    2
    13     6     8    2
    14     6     9   am
    15     9    10    1
    16     9    28    1
    17    10    19   ar
    18    10    11   ar
    19    11    12   ar
    20    11    29    1
    21    12    13   ar
    22    12    30    1
    23    13    14    1
    24    13    18   ar
    25    14    15    1
    26    14    16    1
    27    14    17    1
    28    18    19   ar
    29    19    20    1
    30    21    22   ar
    31    21    31    1
    32    22    23    1
@<TRIPOS>SUBSTRUCTURE
     1 ZINC001211202056        1 TEMP              0 ****  ****    0 ROOT


##########                                Name:    ZINC000883773972
##########                DOCK_Rotatable_Bonds:                   4
##########                         Heavy_Atoms:                  23
##########                    Molecular_Weight:             343.447
##########                DOCK_Rotatable_Bonds:                   4
##########                       Formal_Charge:                0.01
##########                     HBond_Acceptors:                   8
##########                        HBond_Donors:                   1
##########                         Heavy_Atoms:                  23
##########                          Grid_Score:          -26.334288
##########                     Grid_vdw_energy:          -24.512383
##########                      Grid_es_energy:           -1.821905
##########           Internal_energy_repulsive:            4.831244

@<TRIPOS>MOLECULE
ZINC000883773972
 48 50 1 0 0
SMALL
USER_CHARGES


@<TRIPOS>ATOM
      1 C1        -13.1765   -4.4897   55.2239 C.3     1  ZINC000883773972   -0.1700
      2 C2        -11.9066   -3.8527   55.7267 C.2     1  ZINC000883773972    0.5300
      3 O3        -10.9037   -3.8797   55.0453 O.2     1  ZINC000883773972   -0.5400
      4 N4        -11.8856   -3.2530   56.9334 N.am    1  ZINC000883773972   -0.6200
      5 C5        -10.7353   -2.5843   57.5637 C.3     1  ZINC000883773972    0.1100
      6 C6        -11.3128   -1.4519   58.4291 C.3     1  ZINC000883773972   -0.1100
      7 H7        -11.1922   -0.4776   57.9557 H       1  ZINC000883773972    0.1000
      8 C8        -10.6652   -1.4952   59.8233 C.3     1  ZINC000883773972    0.1300
      9 N9        -11.7676   -1.4150   60.7956 N.am    1  ZINC000883773972   -0.6400
     10 C10       -11.7224   -0.8534   62.0201 C.2     1  ZINC000883773972    0.7300
     11 O11       -12.7122   -0.8543   62.7261 O.2     1  ZINC000883773972   -0.5800
     12 N12       -10.5800   -0.2909   62.4617 N.am    1  ZINC000883773972   -0.7400
     13 C13       -10.5314    0.3210   63.7919 C.3     1  ZINC000883773972    0.1800
     14 H14       -11.2664   -0.1592   64.4380 H       1  ZINC000883773972    0.1100
     15 C15        -9.1377    0.1349   64.3844 C.3     1  ZINC000883773972   -0.1500
     16 C16        -9.1215    0.5343   65.8571 C.3     1  ZINC000883773972   -0.1000
     17 C17        -9.2776    2.0509   65.9894 C.3     1  ZINC000883773972   -0.5600
     18 H18        -8.4943    2.5494   65.4183 H       1  ZINC000883773972    0.1400
     19 C19        -9.1702    2.4501   67.4625 C.3     1  ZINC000883773972   -0.1400
     20 S20       -10.9042    2.5367   65.3425 S.o2    1  ZINC000883773972    2.4200
     21 O21       -11.9100    1.8750   66.0974 O.2     1  ZINC000883773972   -0.9200
     22 O22       -10.9421    3.9522   65.2237 O.2     1  ZINC000883773972   -0.9300
     23 C23       -10.8537    1.8126   63.6769 C.3     1  ZINC000883773972   -0.6300
     24 C24       -12.9290   -2.0679   60.1695 C.3     1  ZINC000883773972    0.1100
     25 C25       -12.8040   -1.8149   58.6355 C.3     1  ZINC000883773972   -0.1100
     26 H26       -13.4842   -1.0337   58.2963 H       1  ZINC000883773972    0.1000
     27 C27       -13.0099   -3.1329   57.8760 C.3     1  ZINC000883773972    0.1100
     28 H28       -13.0013   -4.9204   54.2380 H       1  ZINC000883773972    0.0900
     29 H29       -13.4869   -5.2748   55.9134 H       1  ZINC000883773972    0.0900
     30 H30       -13.9598   -3.7347   55.1565 H       1  ZINC000883773972    0.0900
     31 H31       -10.1882   -3.2906   58.1881 H       1  ZINC000883773972    0.0800
     32 H32       -10.0770   -2.1722   56.7989 H       1  ZINC000883773972    0.0900
     33 H33       -10.1190   -2.4295   59.9532 H       1  ZINC000883773972    0.0700
     34 H34        -9.9923   -0.6472   59.9497 H       1  ZINC000883773972    0.0900
     35 H35        -9.7900   -0.2914   61.8989 H       1  ZINC000883773972    0.4000
     36 H36        -8.8451   -0.9111   64.2927 H       1  ZINC000883773972    0.0900
     37 H37        -8.4285    0.7550   63.8362 H       1  ZINC000883773972    0.0800
     38 H38        -9.9430    0.0395   66.3751 H       1  ZINC000883773972    0.0900
     39 H39        -8.1762    0.2275   66.3047 H       1  ZINC000883773972    0.0900
     40 H40        -8.1964    2.1506   67.8500 H       1  ZINC000883773972    0.0800
     41 H41        -9.2816    3.5304   67.5553 H       1  ZINC000883773972    0.0700
     42 H42        -9.9562    1.9536   68.0316 H       1  ZINC000883773972    0.0800
     43 H43       -10.0841    2.3097   63.0862 H       1  ZINC000883773972    0.1400
     44 H44       -11.8233    1.9382   63.1949 H       1  ZINC000883773972    0.1400
     45 H45       -12.9163   -3.1371   60.3810 H       1  ZINC000883773972    0.0800
     46 H46       -13.8528   -1.6237   60.5402 H       1  ZINC000883773972    0.0800
     47 H47       -13.9640   -3.1159   57.3493 H       1  ZINC000883773972    0.0900
     48 H48       -12.9799   -3.9731   58.5697 H       1  ZINC000883773972    0.0700
@<TRIPOS>BOND
     1     1     2    1
     2     1    28    1
     3     1    29    1
     4     1    30    1
     5     2     3    2
     6     2     4   am
     7     4    27    1
     8     4     5    1
     9     5     6    1
    10     5    31    1
    11     5    32    1
    12     6     7    1
    13     6    25    1
    14     6     8    1
    15     8     9    1
    16     8    33    1
    17     8    34    1
    18     9    10   am
    19     9    24    1
    20    10    11    2
    21    10    12   am
    22    12    13    1
    23    12    35    1
    24    13    14    1
    25    13    23    1
    26    13    15    1
    27    15    16    1
    28    15    36    1
    29    15    37    1
    30    16    17    1
    31    16    38    1
    32    16    39    1
    33    17    18    1
    34    17    19    1
    35    17    20    1
    36    19    40    1
    37    19    41    1
    38    19    42    1
    39    20    21    2
    40    20    22    2
    41    20    23    1
    42    23    43    1
    43    23    44    1
    44    24    25    1
    45    24    45    1
    46    24    46    1
    47    25    26    1
    48    25    27    1
    49    27    47    1
    50    27    48    1
@<TRIPOS>SUBSTRUCTURE
     1 ZINC000883773972        1 TEMP              0 ****  ****    0 ROOT


##########                                Name:    ZINC001010141213
##########                DOCK_Rotatable_Bonds:                   4
##########                         Heavy_Atoms:                  24
##########                    Molecular_Weight:             330.346
##########                DOCK_Rotatable_Bonds:                   4
##########                       Formal_Charge:          -0.0100003
##########                     HBond_Acceptors:                   9
##########                        HBond_Donors:                   1
##########                         Heavy_Atoms:                  24
##########                          Grid_Score:          -25.166691
##########                     Grid_vdw_energy:          -24.252281
##########                      Grid_es_energy:           -0.914410
##########           Internal_energy_repulsive:           14.421866

@<TRIPOS>MOLECULE
ZINC001010141213
 42 44 1 0 0
SMALL
USER_CHARGES


@<TRIPOS>ATOM
      1 C1         -6.7919    3.1292   53.1188 C.3     1  ZINC001010141213   -0.0800
      2 C2         -5.9024    3.2543   54.3289 C.2     1  ZINC001010141213   -0.1500
      3 C3         -6.2568    3.7084   55.5874 C.2     1  ZINC001010141213   -0.0400
      4 C4         -7.5861    4.1702   56.0178 C.2     1  ZINC001010141213    0.6000
      5 O5         -7.9786    5.2762   55.6987 O.2     1  ZINC001010141213   -0.5100
      6 N6         -8.3689    3.3672   56.7656 N.am    1  ZINC001010141213   -0.6100
      7 C7         -9.7011    3.8127   57.1974 C.3     1  ZINC001010141213    0.0900
      8 C8        -10.7364    2.7785   56.7380 C.3     1  ZINC001010141213    0.0700
      9 N9        -10.2732    1.4417   57.1357 N.am    1  ZINC001010141213   -0.6000
     10 C10       -11.0564    0.6385   57.8826 C.2     1  ZINC001010141213    0.5900
     11 O11       -12.1567    1.0177   58.2334 O.2     1  ZINC001010141213   -0.5200
     12 C12       -10.5771   -0.7043   58.2753 C.2     1  ZINC001010141213    0.0300
     13 N13       -10.7604   -1.7265   57.4703 N.2     1  ZINC001010141213   -0.1800
     14 N14       -10.3632   -2.9112   57.7653 N.am    1  ZINC001010141213   -0.4400
     15 C15        -9.7314   -3.1797   58.9232 C.2     1  ZINC001010141213    0.4800
     16 O16        -9.3658   -4.3161   59.1741 O.2     1  ZINC001010141213   -0.5100
     17 C17        -9.4942   -2.1364   59.8457 C.2     1  ZINC001010141213   -0.1800
     18 C18        -9.9170   -0.8832   59.5150 C.2     1  ZINC001010141213   -0.0400
     19 C19        -8.9409    0.9962   56.7039 C.3     1  ZINC001010141213    0.1000
     20 C20        -7.9079    2.0282   57.1586 C.3     1  ZINC001010141213    0.1000
     21 N21        -5.1253    3.6421   56.3499 N.pl3   1  ZINC001010141213   -0.2700
     22 C22        -5.0341    4.0266   57.7605 C.3     1  ZINC001010141213    0.0900
     23 N23        -4.1537    3.1905   55.6413 N.2     1  ZINC001010141213   -0.2800
     24 C24        -4.5468    2.9308   54.4205 C.2     1  ZINC001010141213    0.0100
     25 H25        -7.2534    2.1418   53.1076 H       1  ZINC001010141213    0.0700
     26 H26        -7.5687    3.8928   53.1584 H       1  ZINC001010141213    0.0600
     27 H27        -6.1970    3.2626   52.2153 H       1  ZINC001010141213    0.0700
     28 H28        -9.7246    3.8960   58.2840 H       1  ZINC001010141213    0.0800
     29 H29        -9.9266    4.7801   56.7488 H       1  ZINC001010141213    0.1000
     30 H30       -11.6968    2.9881   57.2091 H       1  ZINC001010141213    0.1400
     31 H31       -10.8409    2.8221   55.6539 H       1  ZINC001010141213    0.0800
     32 H32       -10.5229   -3.6326   57.1367 H       1  ZINC001010141213    0.4500
     33 H33        -8.9896   -2.3249   60.7817 H       1  ZINC001010141213    0.1700
     34 H34        -9.7601   -0.0506   60.1847 H       1  ZINC001010141213    0.1700
     35 H35        -8.7155    0.0287   57.1524 H       1  ZINC001010141213    0.1100
     36 H36        -8.9174    0.9129   55.6172 H       1  ZINC001010141213    0.0800
     37 H37        -6.9482    1.8175   56.6867 H       1  ZINC001010141213    0.1100
     38 H38        -7.8024    1.9870   58.2426 H       1  ZINC001010141213    0.0800
     39 H39        -5.1682    3.1448   58.3870 H       1  ZINC001010141213    0.0900
     40 H40        -4.0552    4.4650   57.9550 H       1  ZINC001010141213    0.1000
     41 H41        -5.8108    4.7563   57.9891 H       1  ZINC001010141213    0.0900
     42 H42        -3.9306    2.5421   53.6233 H       1  ZINC001010141213    0.1900
@<TRIPOS>BOND
     1     1     2    1
     2     1    25    1
     3     1    26    1
     4     1    27    1
     5     2    24    1
     6     2     3    2
     7     3     4    1
     8     3    21    1
     9     4     5    2
    10     4     6   am
    11     6    20    1
    12     6     7    1
    13     7     8    1
    14     7    28    1
    15     7    29    1
    16     8     9    1
    17     8    30    1
    18     8    31    1
    19     9    10   am
    20     9    19    1
    21    10    11    2
    22    10    12    1
    23    12    18    1
    24    12    13    2
    25    13    14    1
    26    14    15   am
    27    14    32    1
    28    15    16    2
    29    15    17    1
    30    17    18    2
    31    17    33    1
    32    18    34    1
    33    19    20    1
    34    19    35    1
    35    19    36    1
    36    20    37    1
    37    20    38    1
    38    21    22    1
    39    21    23    1
    40    22    39    1
    41    22    40    1
    42    22    41    1
    43    23    24    2
    44    24    42    1
@<TRIPOS>SUBSTRUCTURE
     1 ZINC001010141213        1 TEMP              0 ****  ****    0 ROOT


##########                                Name:    ZINC000793092912
##########                DOCK_Rotatable_Bonds:                   4
##########                         Heavy_Atoms:                  26
##########                    Molecular_Weight:               407.2
##########                DOCK_Rotatable_Bonds:                   4
##########                       Formal_Charge:         2.90573e-07
##########                     HBond_Acceptors:                  10
##########                        HBond_Donors:                   1
##########                         Heavy_Atoms:                  26
##########                          Grid_Score:          -24.909107
##########                     Grid_vdw_energy:          -24.776587
##########                      Grid_es_energy:           -0.132520
##########           Internal_energy_repulsive:           10.420300

@<TRIPOS>MOLECULE
ZINC000793092912
 40 43 1 0 0
SMALL
USER_CHARGES


@<TRIPOS>ATOM
      1 C1        -14.5033   -2.7218   51.9723 C.3     1  ZINC000793092912   -0.1300
      2 C2        -14.1606   -3.0420   53.4287 C.3     1  ZINC000793092912   -0.0800
      3 C3        -14.9984   -2.3114   54.4668 C.3     1  ZINC000793092912   -0.1100
      4 C4        -15.5911   -3.2516   55.4995 C.3     1  ZINC000793092912    0.1100
      5 N5        -14.6419   -4.2695   55.9170 N.am    1  ZINC000793092912   -0.5700
      6 C6        -14.3557   -4.3922   57.2282 C.2     1  ZINC000793092912    0.5100
      7 O7        -13.5661   -5.2352   57.6008 O.2     1  ZINC000793092912   -0.5100
      8 C8        -15.0103   -3.4910   58.2229 C.2     1  ZINC000793092912    0.5100
      9 O9        -16.1528   -3.7027   58.5740 O.2     1  ZINC000793092912   -0.4900
     10 N10       -14.3326   -2.4425   58.7306 N.am    1  ZINC000793092912   -0.6400
     11 C11       -14.9457   -1.5984   59.6621 C.ar    1  ZINC000793092912    0.1600
     12 C12       -15.4686   -0.3781   59.2550 C.ar    1  ZINC000793092912   -0.1200
     13 C13       -16.0746    0.4569   60.1743 C.ar    1  ZINC000793092912   -0.0600
     14 C14       -16.1617    0.0796   61.5045 C.ar    1  ZINC000793092912    0.0200
     15 O15       -16.6994    0.7108   62.5898 O.3     1  ZINC000793092912   -0.2800
     16 C16       -16.8640   -0.3140   63.5878 C.3     1  ZINC000793092912    0.5700
     17 F17       -16.6501    0.2078   64.8680 F       1  ZINC000793092912   -0.1100
     18 F18       -18.1372   -0.8869   63.4984 F       1  ZINC000793092912   -0.1500
     19 O19       -15.8476   -1.2790   63.2585 O.3     1  ZINC000793092912   -0.2800
     20 C20       -15.6378   -1.1443   61.9163 C.ar    1  ZINC000793092912    0.0500
     21 C21       -15.0365   -1.9830   60.9939 C.ar    1  ZINC000793092912   -0.0900
     22 C22       -13.9897   -5.1616   54.9702 C.3     1  ZINC000793092912    0.1100
     23 C23       -13.5720   -4.4140   53.7126 C.3     1  ZINC000793092912   -0.1200
     24 H24       -13.4371   -5.0448   52.8340 H       1  ZINC000793092912    0.1400
     25 C25       -12.6690   -3.1913   53.7732 C.3     1  ZINC000793092912    0.0000
     26 Cl26      -11.4650   -2.9774   52.4483 Cl      1  ZINC000793092912   -0.0800
     27 Cl27      -12.1454   -2.6214   55.4018 Cl      1  ZINC000793092912   -0.0900
     28 H28       -15.2392   -3.4379   51.6063 H       1  ZINC000793092912    0.0800
     29 H29       -14.9143   -1.7142   51.9088 H       1  ZINC000793092912    0.0700
     30 H30       -13.6010   -2.7852   51.3643 H       1  ZINC000793092912    0.0700
     31 H31       -14.3707   -1.5795   54.9751 H       1  ZINC000793092912    0.0900
     32 H32       -15.8090   -1.7871   53.9606 H       1  ZINC000793092912    0.1000
     33 H33       -15.8968   -2.6731   56.3713 H       1  ZINC000793092912    0.1100
     34 H34       -16.4684   -3.7383   55.0735 H       1  ZINC000793092912    0.0800
     35 H35       -13.4196   -2.2732   58.4500 H       1  ZINC000793092912    0.4300
     36 H36       -15.4014   -0.0811   58.2187 H       1  ZINC000793092912    0.1500
     37 H37       -16.4807    1.4054   59.8553 H       1  ZINC000793092912    0.1500
     38 H38       -14.6350   -2.9344   61.3101 H       1  ZINC000793092912    0.1600
     39 H39       -13.0965   -5.5816   55.4325 H       1  ZINC000793092912    0.1400
     40 H40       -14.6726   -5.9717   54.7143 H       1  ZINC000793092912    0.1000
@<TRIPOS>BOND
     1     1     2    1
     2     1    28    1
     3     1    29    1
     4     1    30    1
     5     2    23    1
     6     2    25    1
     7     2     3    1
     8     3     4    1
     9     3    31    1
    10     3    32    1
    11     4     5    1
    12     4    33    1
    13     4    34    1
    14     5     6   am
    15     5    22    1
    16     6     7    2
    17     6     8    1
    18     8     9    2
    19     8    10   am
    20    10    11    1
    21    10    35    1
    22    11    21   ar
    23    11    12   ar
    24    12    13   ar
    25    12    36    1
    26    13    14   ar
    27    13    37    1
    28    14    20   ar
    29    14    15    1
    30    15    16    1
    31    16    17    1
    32    16    18    1
    33    16    19    1
    34    19    20    1
    35    20    21   ar
    36    21    38    1
    37    22    23    1
    38    22    39    1
    39    22    40    1
    40    23    24    1
    41    23    25    1
    42    25    26    1
    43    25    27    1
@<TRIPOS>SUBSTRUCTURE
     1 ZINC000793092912        1 TEMP              0 ****  ****    0 ROOT


##########                                Name:    ZINC000965273005
##########                DOCK_Rotatable_Bonds:                   7
##########                         Heavy_Atoms:                  27
##########                    Molecular_Weight:             368.436
##########                DOCK_Rotatable_Bonds:                   7
##########                       Formal_Charge:           0.0100003
##########                     HBond_Acceptors:                   7
##########                        HBond_Donors:                   2
##########                         Heavy_Atoms:                  27
##########                          Grid_Score:          -24.677481
##########                     Grid_vdw_energy:          -23.950771
##########                      Grid_es_energy:           -0.726710
##########           Internal_energy_repulsive:            8.730588

@<TRIPOS>MOLECULE
ZINC000965273005
 51 54 1 0 0
SMALL
USER_CHARGES


@<TRIPOS>ATOM
      1 C1         -8.3180    2.3978   57.4997 C.3     1  ZINC000965273005   -0.1200
      2 C2         -7.9165    2.8686   56.1257 C.ar    1  ZINC000965273005   -0.0300
      3 C3         -6.5976    2.7957   55.7280 C.ar    1  ZINC000965273005   -0.1200
      4 C4         -6.2272    3.2277   54.4666 C.ar    1  ZINC000965273005   -0.0900
      5 C5         -7.1755    3.7346   53.5963 C.ar    1  ZINC000965273005   -0.1300
      6 C6         -8.4981    3.8130   53.9815 C.ar    1  ZINC000965273005   -0.0900
      7 C7         -8.8792    3.3742   55.2503 C.ar    1  ZINC000965273005   -0.1300
      8 C8        -10.2946    3.4552   55.6698 C.2     1  ZINC000965273005    0.5800
      9 O9        -10.6431    4.2987   56.4726 O.2     1  ZINC000965273005   -0.5200
     10 N10       -11.1983    2.5938   55.1622 N.am    1  ZINC000965273005   -0.6100
     11 C11       -10.9126    1.5226   54.1903 C.3     1  ZINC000965273005    0.0900
     12 C12       -12.0414    0.4833   54.4025 C.3     1  ZINC000965273005    0.1500
     13 H13       -12.2033   -0.1073   53.5007 H       1  ZINC000965273005    0.1200
     14 N14       -11.7501   -0.3820   55.5482 N.am    1  ZINC000965273005   -0.7100
     15 C15       -11.3363   -1.6489   55.3478 C.2     1  ZINC000965273005    0.6000
     16 O16       -11.2062   -2.0743   54.2159 O.2     1  ZINC000965273005   -0.5400
     17 C17       -11.0414   -2.5192   56.5007 C.2     1  ZINC000965273005   -0.2800
     18 C18       -10.1434   -2.2581   57.5159 C.2     1  ZINC000965273005    0.1000
     19 N19       -10.1782   -3.3005   58.3613 N.pl3   1  ZINC000965273005   -0.3600
     20 C20        -9.3805   -3.4396   59.5822 C.3     1  ZINC000965273005    0.1000
     21 N21       -11.1055   -4.2314   57.8800 N.2     1  ZINC000965273005   -0.3000
     22 C22       -11.6296   -3.7739   56.7765 C.2     1  ZINC000965273005    0.1700
     23 C23       -12.6720   -4.4669   55.9374 C.3     1  ZINC000965273005   -0.0800
     24 C24       -13.5347   -5.5309   56.6190 C.3     1  ZINC000965273005   -0.1700
     25 C25       -14.1406   -4.1748   56.2519 C.3     1  ZINC000965273005   -0.1600
     26 C26       -13.2588    1.4005   54.6926 C.3     1  ZINC000965273005    0.0900
     27 H27       -13.7006    1.7604   53.7634 H       1  ZINC000965273005    0.0900
     28 O28       -14.2330    0.7135   55.4806 O.3     1  ZINC000965273005   -0.5500
     29 C29       -12.6310    2.5625   55.4906 C.3     1  ZINC000965273005    0.0600
     30 H30        -8.6661    1.3664   57.4430 H       1  ZINC000965273005    0.0800
     31 H31        -7.4595    2.4552   58.1688 H       1  ZINC000965273005    0.0700
     32 H32        -9.1189    3.0311   57.8812 H       1  ZINC000965273005    0.0700
     33 H33        -5.8525    2.4010   56.4027 H       1  ZINC000965273005    0.1300
     34 H34        -5.1933    3.1691   54.1604 H       1  ZINC000965273005    0.1300
     35 H35        -6.8799    4.0700   52.6131 H       1  ZINC000965273005    0.1300
     36 H36        -9.2374    4.2093   53.3012 H       1  ZINC000965273005    0.1300
     37 H37       -10.9437    1.9145   53.1737 H       1  ZINC000965273005    0.0900
     38 H38        -9.9405    1.0740   54.3952 H       1  ZINC000965273005    0.0900
     39 H39       -11.8550   -0.0431   56.4510 H       1  ZINC000965273005    0.4000
     40 H40        -9.5256   -1.3774   57.6122 H       1  ZINC000965273005    0.1800
     41 H41        -9.9261   -3.0125   60.4235 H       1  ZINC000965273005    0.0800
     42 H42        -9.1883   -4.4956   59.7723 H       1  ZINC000965273005    0.1000
     43 H43        -8.4333   -2.9144   59.4591 H       1  ZINC000965273005    0.0900
     44 H44       -12.4036   -4.6292   54.8935 H       1  ZINC000965273005    0.1400
     45 H45       -13.8338   -6.3936   56.0237 H       1  ZINC000965273005    0.1000
     46 H46       -13.3482   -5.7296   57.6745 H       1  ZINC000965273005    0.1000
     47 H47       -14.3528   -3.4815   57.0658 H       1  ZINC000965273005    0.0900
     48 H48       -14.8383   -4.1454   55.4150 H       1  ZINC000965273005    0.1000
     49 H49       -13.9692    0.5768   56.4008 H       1  ZINC000965273005    0.3900
     50 H50       -12.7678    2.3951   56.5589 H       1  ZINC000965273005    0.0800
     51 H51       -13.0938    3.5053   55.1987 H       1  ZINC000965273005    0.0800
@<TRIPOS>BOND
     1     1     2    1
     2     1    30    1
     3     1    31    1
     4     1    32    1
     5     2     7   ar
     6     2     3   ar
     7     3     4   ar
     8     3    33    1
     9     4     5   ar
    10     4    34    1
    11     5     6   ar
    12     5    35    1
    13     6     7   ar
    14     6    36    1
    15     7     8    1
    16     8     9    2
    17     8    10   am
    18    10    29    1
    19    10    11    1
    20    11    12    1
    21    11    37    1
    22    11    38    1
    23    12    13    1
    24    12    14    1
    25    12    26    1
    26    14    15   am
    27    14    39    1
    28    15    16    2
    29    15    17    1
    30    17    22    1
    31    17    18    2
    32    18    19    1
    33    18    40    1
    34    19    20    1
    35    19    21    1
    36    20    41    1
    37    20    42    1
    38    20    43    1
    39    21    22    2
    40    22    23    1
    41    23    25    1
    42    23    24    1
    43    23    44    1
    44    24    25    1
    45    24    45    1
    46    24    46    1
    47    25    47    1
    48    25    48    1
    49    26    27    1
    50    26    28    1
    51    26    29    1
    52    28    49    1
    53    29    50    1
    54    29    51    1
@<TRIPOS>SUBSTRUCTURE
     1 ZINC000965273005        1 TEMP              0 ****  ****    0 ROOT


##########                                Name:    ZINC000820901229
##########                DOCK_Rotatable_Bonds:                   3
##########                         Heavy_Atoms:                  18
##########                    Molecular_Weight:             331.233
##########                DOCK_Rotatable_Bonds:                   3
##########                       Formal_Charge:           0.0099999
##########                     HBond_Acceptors:                   5
##########                        HBond_Donors:                   1
##########                         Heavy_Atoms:                  18
##########                          Grid_Score:          -23.470310
##########                     Grid_vdw_energy:          -23.799261
##########                      Grid_es_energy:            0.328951
##########           Internal_energy_repulsive:            3.936512

@<TRIPOS>MOLECULE
ZINC000820901229
 33 35 1 0 0
SMALL
USER_CHARGES


@<TRIPOS>ATOM
      1 O1        -11.8165   -0.4092   62.8524 O.2     1  ZINC000820901229   -0.5300
      2 C2        -10.6091   -0.2653   62.8855 C.2     1  ZINC000820901229    0.6000
      3 N3         -9.8525   -0.6799   61.8501 N.am    1  ZINC000820901229   -0.7100
      4 C4        -10.4835   -1.3092   60.6874 C.3     1  ZINC000820901229    0.1600
      5 H5        -11.5021   -1.6080   60.9349 H       1  ZINC000820901229    0.1000
      6 C6         -9.6692   -2.5380   60.2517 C.3     1  ZINC000820901229   -0.1300
      7 C7        -10.2597   -3.1854   59.0026 C.3     1  ZINC000820901229   -0.1100
      8 C8        -10.4021   -2.1689   57.8577 C.3     1  ZINC000820901229   -0.1100
      9 C9        -11.2708   -1.0364   58.3649 C.3     1  ZINC000820901229    0.0800
     10 H10       -12.2116   -1.4363   58.7430 H       1  ZINC000820901229    0.0700
     11 O11       -11.5320    0.0435   57.4757 O.3     1  ZINC000820901229   -0.3700
     12 C12       -11.9829    1.1326   58.3208 C.3     1  ZINC000820901229    0.0500
     13 C13       -11.3496    0.9161   59.7196 C.3     1  ZINC000820901229   -0.1500
     14 C14       -10.4991   -0.3388   59.5194 C.3     1  ZINC000820901229   -0.1400
     15 H15        -9.4858   -0.0761   59.2156 H       1  ZINC000820901229    0.0900
     16 C16        -9.9747    0.3672   64.0542 C.2     1  ZINC000820901229    0.0100
     17 C17       -10.6758    0.9790   65.0346 C.2     1  ZINC000820901229   -0.2200
     18 S18        -9.5824    1.5809   66.2025 S.3     1  ZINC000820901229    0.3100
     19 C19        -8.2519    0.9816   65.3154 C.2     1  ZINC000820901229   -0.0100
     20 Br20       -6.4424    1.1614   65.8344 Br      1  ZINC000820901229    0.0700
     21 N21        -8.6526    0.3850   64.2472 N.2     1  ZINC000820901229   -0.4100
     22 H22        -8.8900   -0.5614   61.8747 H       1  ZINC000820901229    0.4100
     23 H23        -8.6445   -2.2307   60.0431 H       1  ZINC000820901229    0.0700
     24 H24        -9.6634   -3.2670   61.0619 H       1  ZINC000820901229    0.0700
     25 H25        -9.6077   -3.9971   58.6797 H       1  ZINC000820901229    0.0800
     26 H26       -11.2419   -3.5925   59.2423 H       1  ZINC000820901229    0.0700
     27 H27        -9.4206   -1.7864   57.5774 H       1  ZINC000820901229    0.0700
     28 H28       -10.8756   -2.6429   56.9980 H       1  ZINC000820901229    0.0800
     29 H29       -11.6521    2.0852   57.9069 H       1  ZINC000820901229    0.0900
     30 H30       -13.0699    1.1164   58.3989 H       1  ZINC000820901229    0.0600
     31 H31       -10.7219    1.7641   59.9938 H       1  ZINC000820901229    0.0800
     32 H32       -12.1218    0.7485   60.4704 H       1  ZINC000820901229    0.0800
     33 H33       -11.7511    1.0727   65.0734 H       1  ZINC000820901229    0.2000
@<TRIPOS>BOND
     1     1     2    2
     2     2     3   am
     3     2    16    1
     4     3     4    1
     5     3    22    1
     6     4     5    1
     7     4    14    1
     8     4     6    1
     9     6     7    1
    10     6    23    1
    11     6    24    1
    12     7     8    1
    13     7    25    1
    14     7    26    1
    15     8     9    1
    16     8    27    1
    17     8    28    1
    18     9    10    1
    19     9    14    1
    20     9    11    1
    21    11    12    1
    22    12    13    1
    23    12    29    1
    24    12    30    1
    25    13    14    1
    26    13    31    1
    27    13    32    1
    28    14    15    1
    29    16    21    1
    30    16    17    2
    31    17    18    1
    32    17    33    1
    33    18    19    1
    34    19    20    1
    35    19    21    2
@<TRIPOS>SUBSTRUCTURE
     1 ZINC000820901229        1 TEMP              0 ****  ****    0 ROOT


##########                                Name:    ZINC000569288350
##########                DOCK_Rotatable_Bonds:                   3
##########                         Heavy_Atoms:                  19
##########                    Molecular_Weight:             393.559
##########                DOCK_Rotatable_Bonds:                   3
##########                       Formal_Charge:           0.0299999
##########                     HBond_Acceptors:                   5
##########                        HBond_Donors:                   1
##########                         Heavy_Atoms:                  19
##########                          Grid_Score:          -22.465303
##########                     Grid_vdw_energy:          -21.940418
##########                      Grid_es_energy:           -0.524885
##########           Internal_energy_repulsive:            5.431861

@<TRIPOS>MOLECULE
ZINC000569288350
 26 27 1 0 0
SMALL
USER_CHARGES


@<TRIPOS>ATOM
      1 O1        -12.2844   -0.5780   59.3853 O.2     1  ZINC000569288350   -0.4800
      2 C2        -12.5553   -1.7003   59.7667 C.2     1  ZINC000569288350    0.5700
      3 N3        -12.7685   -1.9337   61.0769 N.am    1  ZINC000569288350   -0.6600
      4 C4        -12.6726   -0.8856   61.9988 C.ar    1  ZINC000569288350    0.1800
      5 C5        -11.4963   -0.1550   62.1015 C.ar    1  ZINC000569288350   -0.1200
      6 C6        -11.4032    0.8796   63.0123 C.ar    1  ZINC000569288350   -0.0600
      7 C7        -12.4795    1.1889   63.8227 C.ar    1  ZINC000569288350   -0.1500
      8 C8        -13.6553    0.4632   63.7243 C.ar    1  ZINC000569288350    0.1300
      9 F9        -14.7056    0.7682   64.5174 F       1  ZINC000569288350   -0.1200
     10 C10       -13.7563   -0.5703   62.8093 C.ar    1  ZINC000569288350   -0.1000
     11 Cl11      -15.2294   -1.4802   62.6846 Cl      1  ZINC000569288350   -0.0400
     12 C12       -12.6565   -2.8061   58.7940 C.ar    1  ZINC000569288350   -0.1400
     13 C13       -13.8521   -3.0270   58.1029 C.ar    1  ZINC000569288350    0.1400
     14 F14       -14.9194   -2.2284   58.3226 F       1  ZINC000569288350   -0.1200
     15 C15       -13.9380   -4.0654   57.1934 C.ar    1  ZINC000569288350   -0.1300
     16 C16       -12.8464   -4.8829   56.9681 C.ar    1  ZINC000569288350   -0.0600
     17 C17       -11.6604   -4.6696   57.6494 C.ar    1  ZINC000569288350   -0.0900
     18 C18       -11.5565   -3.6341   58.5547 C.ar    1  ZINC000569288350   -0.0500
     19 I19        -9.7594   -3.3153   59.5834 I       1  ZINC000569288350    0.0000
     20 H20       -12.9885   -2.8282   61.3807 H       1  ZINC000569288350    0.4200
     21 H21       -10.6541   -0.3956   61.4695 H       1  ZINC000569288350    0.1600
     22 H22       -10.4880    1.4475   63.0916 H       1  ZINC000569288350    0.1500
     23 H23       -12.4034    1.9978   64.5343 H       1  ZINC000569288350    0.1500
     24 H24       -14.8602   -4.2381   56.6583 H       1  ZINC000569288350    0.1500
     25 H25       -12.9192   -5.6924   56.2570 H       1  ZINC000569288350    0.1500
     26 H26       -10.8122   -5.3130   57.4679 H       1  ZINC000569288350    0.1500
@<TRIPOS>BOND
     1     1     2    2
     2     2     3   am
     3     2    12    1
     4     3     4    1
     5     3    20    1
     6     4    10   ar
     7     4     5   ar
     8     5     6   ar
     9     5    21    1
    10     6     7   ar
    11     6    22    1
    12     7     8   ar
    13     7    23    1
    14     8     9    1
    15     8    10   ar
    16    10    11    1
    17    12    18   ar
    18    12    13   ar
    19    13    14    1
    20    13    15   ar
    21    15    16   ar
    22    15    24    1
    23    16    17   ar
    24    16    25    1
    25    17    18   ar
    26    17    26    1
    27    18    19    1
@<TRIPOS>SUBSTRUCTURE
     1 ZINC000569288350        1 TEMP              0 ****  ****    0 ROOT

