
##########                                Name:     oleObject79.pdb
##########                DOCK_Rotatable_Bonds:                  12
##########                         Heavy_Atoms:                  53
##########                    Molecular_Weight:             725.376
##########                DOCK_Rotatable_Bonds:                  12
##########                       Formal_Charge:          0.00050066
##########                     HBond_Acceptors:                   8
##########                        HBond_Donors:                   4
##########                         Heavy_Atoms:                  53
##########                          Grid_Score:          -46.924156
##########                     Grid_vdw_energy:          -46.661747
##########                      Grid_es_energy:           -0.262407
##########           Internal_energy_repulsive:           37.596447

@<TRIPOS>MOLECULE
oleObject79.pdb
 102 108 1 0 0
SMALL
NO_CHARGES


@<TRIPOS>ATOM
      1 C         -14.4346   -0.6875   63.8228 C.ar    1  UNL        -0.0620
      2 C         -13.8589    0.5138   63.3865 C.ar    1  UNL        -0.0590
      3 C         -13.2014    0.5891   62.1431 C.ar    1  UNL        -0.0456
      4 C         -13.1215   -0.5641   61.3180 C.ar    1  UNL        -0.0185
      5 C         -13.7080   -1.7642   61.7752 C.ar    1  UNL        -0.0565
      6 C         -14.3585   -1.8283   63.0156 C.ar    1  UNL        -0.0619
      7 C         -12.4629   -0.5295   59.9240 C.3     1  UNL         0.0931
      8 C         -11.8160   -1.8532   59.4748 C.ar    1  UNL         0.0683
      9 C         -10.6298   -2.3384   60.0826 C.ar    1  UNL        -0.0272
     10 C         -10.0905   -3.5554   59.6245 C.ar    1  UNL        -0.0559
     11 C         -10.7397   -4.2454   58.5909 C.ar    1  UNL        -0.0435
     12 C         -11.9095   -3.6949   58.0478 C.ar    1  UNL         0.0272
     13 N         -12.4318   -2.5314   58.4782 N.ar    1  UNL        -0.2587
     14 C          -9.9246   -1.5881   61.2079 C.3     1  UNL        -0.0379
     15 N         -13.3638    0.0943   58.9148 N.am    1  UNL        -0.2918
     16 C         -12.8321    0.7715   57.8151 C.2     1  UNL         0.2179
     17 O         -11.6680    1.1360   57.8254 O.2     1  UNL        -0.2772
     18 C         -13.8515    1.3873   56.8192 C.3     1  UNL         0.0361
     19 C         -14.4576    0.3426   55.8388 C.3     1  UNL        -0.0412
     20 C         -13.4722   -0.1242   54.7317 C.3     1  UNL        -0.0453
     21 C         -12.7814    1.0357   53.9542 C.3     1  UNL        -0.0139
     22 C         -11.5993    0.4445   53.1370 C.3     1  UNL         0.0171
     23 N         -10.9661    1.4794   52.2946 N.pl3   1  UNL        -0.3290
     24 C         -11.8715    2.0752   51.2927 C.3     1  UNL         0.0115
     25 C         -13.1165    2.6855   51.9787 C.3     1  UNL        -0.0368
     26 C         -13.7889    1.6844   52.9516 C.3     1  UNL        -0.0446
     27 C          -9.5832    1.6901   52.3032 C.ar    1  UNL         0.0476
     28 C          -9.0933    3.0009   52.4641 C.ar    1  UNL        -0.0375
     29 C          -7.7150    3.2638   52.4492 C.ar    1  UNL        -0.0388
     30 C          -6.7929    2.2248   52.2505 C.ar    1  UNL         0.0318
     31 C          -7.2728    0.9101   52.1066 C.ar    1  UNL        -0.0202
     32 C          -8.6516    0.6398   52.1257 C.ar    1  UNL         0.0636
     33 CL         -9.1420   -1.0236   51.8535 Cl      1  UNL        -0.0822
     34 N          -5.4319    2.5236   52.2414 N.pl3   1  UNL        -0.3149
     35 C          -4.4693    2.4192   51.2387 C.ar    1  UNL         0.0302
     36 C          -3.1701    2.9383   51.3888 C.ar    1  UNL        -0.0402
     37 C          -2.2190    2.7903   50.3667 C.ar    1  UNL        -0.0525
     38 C          -2.5311    2.1117   49.1625 C.ar    1  UNL        -0.0182
     39 C          -3.8381    1.5793   49.0360 C.ar    1  UNL        -0.0525
     40 C          -4.7872    1.7235   50.0612 C.ar    1  UNL        -0.0402
     41 C          -1.5153    1.9532   48.0684 C.ar    1  UNL        -0.0177
     42 C          -1.8555    1.3511   46.8301 C.ar    1  UNL        -0.0439
     43 C          -0.9118    1.1916   45.7920 C.ar    1  UNL         0.0111
     44 C           0.4065    1.6463   46.0019 C.ar    1  UNL        -0.0518
     45 C           0.7674    2.2462   47.2169 C.ar    1  UNL        -0.0609
     46 C          -0.1818    2.3989   48.2376 C.ar    1  UNL        -0.0543
     47 C          -1.2769    0.5982   44.5792 C.2     1  UNL         0.1014
     48 N          -2.4345    0.0798   44.3912 N.3     1  UNL        -0.2892
     49 N          -0.4156    0.5429   43.5542 N.3     1  UNL        -0.2870
     50 C         -12.2142    2.0749   54.9710 C.3     1  UNL        -0.0453
     51 C         -13.2527    2.5627   56.0036 C.3     1  UNL        -0.0412
     52 C         -14.8239   -0.0552   59.1000 C.3     1  UNL         0.0037
     53 C         -12.6175    1.9338   61.7228 C.3     1  UNL        -0.0394
     54 H         -14.9420   -0.7340   64.7815 H       1  UNL         0.0623
     55 H         -13.9305    1.3946   64.0181 H       1  UNL         0.0626
     56 H         -13.6621   -2.6592   61.1639 H       1  UNL         0.0627
     57 H         -14.8051   -2.7608   63.3480 H       1  UNL         0.0623
     58 H         -11.6098    0.1456   60.0080 H       1  UNL         0.0626
     59 H          -9.1832   -3.9615   60.0627 H       1  UNL         0.0627
     60 H         -10.3463   -5.1869   58.2192 H       1  UNL         0.0639
     61 H         -12.4458   -4.1993   57.2449 H       1  UNL         0.0840
     62 H          -9.5955   -0.5954   60.8777 H       1  UNL         0.0280
     63 H          -9.0344   -2.1263   61.5565 H       1  UNL         0.0280
     64 H         -10.5850   -1.4572   62.0739 H       1  UNL         0.0280
     65 H         -14.6797    1.7781   57.4227 H       1  UNL         0.0401
     66 H         -15.3406    0.7833   55.3589 H       1  UNL         0.0275
     67 H         -14.8201   -0.5281   56.4002 H       1  UNL         0.0275
     68 H         -14.0045   -0.7797   54.0305 H       1  UNL         0.0273
     69 H         -12.6996   -0.7551   55.1867 H       1  UNL         0.0273
     70 H         -11.9659   -0.3694   52.4980 H       1  UNL         0.0474
     71 H         -10.8635    0.0153   53.8298 H       1  UNL         0.0474
     72 H         -12.1970    1.2933   50.5947 H       1  UNL         0.0468
     73 H         -11.3567    2.8452   50.7050 H       1  UNL         0.0468
     74 H         -13.8388    2.9988   51.2146 H       1  UNL         0.0283
     75 H         -12.8292    3.5928   52.5229 H       1  UNL         0.0283
     76 H         -14.2517    0.8913   52.3497 H       1  UNL         0.0273
     77 H         -14.6103    2.1826   53.4793 H       1  UNL         0.0273
     78 H          -9.7854    3.8252   52.6101 H       1  UNL         0.0644
     79 H          -7.3636    4.2839   52.5769 H       1  UNL         0.0643
     80 H          -6.5765    0.0865   51.9824 H       1  UNL         0.0659
     81 H          -5.0834    2.9024   53.1126 H       1  UNL         0.1528
     82 H          -2.8822    3.4429   52.3046 H       1  UNL         0.0643
     83 H          -1.2329    3.2201   50.5123 H       1  UNL         0.0630
     84 H          -4.1185    1.0286   48.1437 H       1  UNL         0.0630
     85 H          -5.7782    1.2964   49.9358 H       1  UNL         0.0643
     86 H          -2.8738    1.0097   46.6725 H       1  UNL         0.0637
     87 H           1.1555    1.5492   45.2207 H       1  UNL         0.0630
     88 H           1.7858    2.5928   47.3683 H       1  UNL         0.0623
     89 H           0.1292    2.8510   49.1743 H       1  UNL         0.0629
     90 H          -2.4374   -0.9057   44.6626 H       1  UNL         0.1889
     91 H           0.2273   -0.2428   43.4731 H       1  UNL         0.1258
     92 H          -0.7387    0.7698   42.6154 H       1  UNL         0.1258
     93 H         -11.7898    2.9437   54.4557 H       1  UNL         0.0273
     94 H         -11.3792    1.6155   55.5124 H       1  UNL         0.0273
     95 H         -14.0609    3.0961   55.4890 H       1  UNL         0.0275
     96 H         -12.7879    3.3025   56.6635 H       1  UNL         0.0275
     97 H         -15.3240    0.9184   59.0512 H       1  UNL         0.0433
     98 H         -15.0621   -0.5044   60.0708 H       1  UNL         0.0433
     99 H         -15.2248   -0.7002   58.3083 H       1  UNL         0.0433
    100 H         -12.7143    2.6858   62.5158 H       1  UNL         0.0280
    101 H         -13.1334    2.3262   60.8374 H       1  UNL         0.0280
    102 H         -11.5495    1.8454   61.4874 H       1  UNL         0.0280
@<TRIPOS>BOND
     1     1     2   ar
     2     1     6   ar
     3     1    54    1
     4     2     3   ar
     5     2    55    1
     6     3     4   ar
     7     3    53    1
     8     4     5   ar
     9     4     7    1
    10     5     6   ar
    11     5    56    1
    12     6    57    1
    13     7     8    1
    14     7    15    1
    15     7    58    1
    16     8     9   ar
    17     8    13   ar
    18     9    10   ar
    19     9    14    1
    20    10    11   ar
    21    10    59    1
    22    11    12   ar
    23    11    60    1
    24    12    13   ar
    25    12    61    1
    26    14    62    1
    27    14    63    1
    28    14    64    1
    29    15    16   am
    30    15    52    1
    31    16    17    2
    32    16    18    1
    33    18    19    1
    34    18    51    1
    35    18    65    1
    36    19    20    1
    37    19    66    1
    38    19    67    1
    39    20    21    1
    40    20    68    1
    41    20    69    1
    42    21    22    1
    43    21    26    1
    44    21    50    1
    45    22    23    1
    46    22    70    1
    47    22    71    1
    48    23    24    1
    49    23    27    1
    50    24    25    1
    51    24    72    1
    52    24    73    1
    53    25    26    1
    54    25    74    1
    55    25    75    1
    56    26    76    1
    57    26    77    1
    58    27    28   ar
    59    27    32   ar
    60    28    29   ar
    61    28    78    1
    62    29    30   ar
    63    29    79    1
    64    30    31   ar
    65    30    34    1
    66    31    32   ar
    67    31    80    1
    68    32    33    1
    69    34    35    1
    70    34    81    1
    71    35    36   ar
    72    35    40   ar
    73    36    37   ar
    74    36    82    1
    75    37    38   ar
    76    37    83    1
    77    38    39   ar
    78    38    41    1
    79    39    40   ar
    80    39    84    1
    81    40    85    1
    82    41    42   ar
    83    41    46   ar
    84    42    43   ar
    85    42    86    1
    86    43    44   ar
    87    43    47    1
    88    44    45   ar
    89    44    87    1
    90    45    46   ar
    91    45    88    1
    92    46    89    1
    93    47    48    1
    94    47    49    1
    95    48    90    1
    96    49    91    1
    97    49    92    1
    98    50    51    1
    99    50    93    1
   100    50    94    1
   101    51    95    1
   102    51    96    1
   103    52    97    1
   104    52    98    1
   105    52    99    1
   106    53   100    1
   107    53   101    1
   108    53   102    1
@<TRIPOS>SUBSTRUCTURE
     1 UNL         1 TEMP              0 ****  ****    0 ROOT


##########                                Name:     oleObject80.pdb
##########                DOCK_Rotatable_Bonds:                  14
##########                         Heavy_Atoms:                  51
##########                    Molecular_Weight:             703.283
##########                DOCK_Rotatable_Bonds:                  14
##########                       Formal_Charge:         0.000299793
##########                     HBond_Acceptors:                  10
##########                        HBond_Donors:                   3
##########                         Heavy_Atoms:                  51
##########                          Grid_Score:          -44.726524
##########                     Grid_vdw_energy:          -43.899586
##########                      Grid_es_energy:           -0.826937
##########           Internal_energy_repulsive:          108.351379

@<TRIPOS>MOLECULE
oleObject80.pdb
 94 99 1 0 0
SMALL
NO_CHARGES


@<TRIPOS>ATOM
      1 C           0.4801    0.1619   39.2722 C.ar    1  UNL        -0.0620
      2 C           1.2503    1.2410   38.8160 C.ar    1  UNL        -0.0590
      3 C           1.7681    2.1891   39.7198 C.ar    1  UNL        -0.0456
      4 C           1.5077    2.0533   41.1073 C.ar    1  UNL        -0.0185
      5 C           0.7316    0.9593   41.5507 C.ar    1  UNL        -0.0565
      6 C           0.2219    0.0209   40.6414 C.ar    1  UNL        -0.0619
      7 C           2.0532    3.0788   42.1173 C.3     1  UNL         0.0931
      8 C           1.3132    4.4282   42.0943 C.ar    1  UNL         0.0683
      9 C           1.4233    5.3533   43.1632 C.ar    1  UNL        -0.0272
     10 C           0.7131    6.5655   43.0769 C.ar    1  UNL        -0.0559
     11 C          -0.0708    6.8198   41.9424 C.ar    1  UNL        -0.0435
     12 C          -0.1163    5.8534   40.9272 C.ar    1  UNL         0.0272
     13 N           0.5591    4.6914   41.0005 N.ar    1  UNL        -0.2587
     14 C           2.2820    5.0788   44.3929 C.3     1  UNL        -0.0379
     15 N           2.2501    2.5331   43.4913 N.am    1  UNL        -0.2918
     16 C           1.2228    2.6068   44.4389 C.2     1  UNL         0.2180
     17 O           0.0801    2.8676   44.0992 O.2     1  UNL        -0.2772
     18 C           1.5116    2.0157   45.8416 C.3     1  UNL         0.0385
     19 C           1.0489    0.5423   45.9568 C.3     1  UNL        -0.0289
     20 C          -0.4872    0.4265   46.0357 C.3     1  UNL        -0.0010
     21 N          -1.0345    1.2017   47.1696 N.4     1  UNL        -0.3010
     22 C          -0.6528    2.6340   47.1325 C.3     1  UNL        -0.0010
     23 C           0.8766    2.8420   46.9915 C.3     1  UNL        -0.0289
     24 C          -2.4858    0.9656   47.3357 C.3     1  UNL         0.0222
     25 C          -3.1752    1.9947   48.2551 C.3     1  UNL         0.0661
     26 O          -2.4573    2.0193   49.5017 O.3     1  UNL        -0.3432
     27 C          -2.9879    2.5108   50.6790 C.ar    1  UNL         0.0937
     28 C          -4.1300    1.9440   51.2803 C.ar    1  UNL        -0.0284
     29 C          -4.6370    2.4767   52.4770 C.ar    1  UNL        -0.0381
     30 C          -4.0093    3.5691   53.0998 C.ar    1  UNL         0.0319
     31 C          -2.8816    4.1479   52.4862 C.ar    1  UNL        -0.0194
     32 C          -2.3710    3.6203   51.2887 C.ar    1  UNL         0.0727
     33 CL         -0.9620    4.3743   50.5663 Cl      1  UNL        -0.0814
     34 N          -4.5570    4.0762   54.2768 N.pl3   1  UNL        -0.3136
     35 C          -4.2745    3.8165   55.6175 C.ar    1  UNL         0.0489
     36 C          -3.5789    2.6453   55.9659 C.ar    1  UNL         0.0488
     37 N          -3.2506    2.3303   57.2348 N.ar    1  UNL        -0.2543
     38 C          -3.5775    3.1661   58.2449 C.ar    1  UNL         0.0703
     39 C          -4.2645    4.3781   57.9745 C.ar    1  UNL        -0.0339
     40 C          -4.6099    4.7070   56.6538 C.ar    1  UNL        -0.0371
     41 C          -3.1721    2.7489   59.6336 C.ar    1  UNL         0.0009
     42 C          -2.5242    1.5102   59.8792 C.ar    1  UNL        -0.0402
     43 C          -2.1401    1.1076   61.1754 C.ar    1  UNL         0.0375
     44 C          -2.4113    1.9666   62.2607 C.ar    1  UNL        -0.0496
     45 C          -3.0546    3.1937   62.0483 C.ar    1  UNL        -0.0608
     46 C          -3.4317    3.5792   60.7540 C.ar    1  UNL        -0.0528
     47 C          -1.4558   -0.2245   61.3655 C.2     1  UNL         0.2403
     48 O          -0.6490   -0.4235   62.2560 O.2     1  UNL        -0.2722
     49 N          -1.7757   -1.2358   60.4845 N.am    1  UNL        -0.3251
     50 C           3.5319    1.8472   43.7702 C.3     1  UNL         0.0037
     51 C           2.6031    3.3402   39.1661 C.3     1  UNL        -0.0394
     52 H           0.0866   -0.5636   38.5659 H       1  UNL         0.0623
     53 H           1.4456    1.3390   37.7518 H       1  UNL         0.0626
     54 H           0.5229    0.8215   42.6069 H       1  UNL         0.0627
     55 H          -0.3717   -0.8155   40.9995 H       1  UNL         0.0623
     56 H           3.0547    3.3149   41.7490 H       1  UNL         0.0626
     57 H           0.7673    7.2997   43.8757 H       1  UNL         0.0627
     58 H          -0.6292    7.7467   41.8502 H       1  UNL         0.0639
     59 H          -0.7108    6.0131   40.0287 H       1  UNL         0.0840
     60 H           1.8665    4.2547   44.9862 H       1  UNL         0.0280
     61 H           2.3429    5.9569   45.0478 H       1  UNL         0.0280
     62 H           3.3078    4.8120   44.1102 H       1  UNL         0.0280
     63 H           2.5960    2.0503   45.9981 H       1  UNL         0.0402
     64 H           1.4823    0.0999   46.8631 H       1  UNL         0.0288
     65 H           1.4201   -0.0513   45.1145 H       1  UNL         0.0288
     66 H          -0.7509   -0.6333   46.1459 H       1  UNL         0.0431
     67 H          -0.9251    0.7817   45.0928 H       1  UNL         0.0431
     68 H          -0.9744    3.1384   48.0512 H       1  UNL         0.0431
     69 H          -1.1659    3.1251   46.2965 H       1  UNL         0.0431
     70 H           1.3500    2.5444   47.9362 H       1  UNL         0.0288
     71 H           1.0971    3.9085   46.8563 H       1  UNL         0.0288
     72 H          -2.6410   -0.0290   47.7738 H       1  UNL         0.0455
     73 H          -2.9800    0.9745   46.3554 H       1  UNL         0.0455
     74 H          -4.2190    1.7068   48.4295 H       1  UNL         0.0586
     75 H          -3.1475    2.9840   47.7810 H       1  UNL         0.0586
     76 H          -4.6338    1.0945   50.8311 H       1  UNL         0.0652
     77 H          -5.5188    2.0302   52.9282 H       1  UNL         0.0644
     78 H          -2.4069    5.0217   52.9213 H       1  UNL         0.0659
     79 H          -5.2994    4.7488   54.1329 H       1  UNL         0.1528
     80 H          -3.2811    1.9277   55.2026 H       1  UNL         0.0861
     81 H          -4.5394    5.0583   58.7731 H       1  UNL         0.0646
     82 H          -5.1119    5.6468   56.4468 H       1  UNL         0.0644
     83 H          -2.3296    0.8366   59.0519 H       1  UNL         0.0638
     84 H          -2.1314    1.6948   63.2736 H       1  UNL         0.0631
     85 H          -3.2611    3.8499   62.8892 H       1  UNL         0.0623
     86 H          -3.9226    4.5393   60.6223 H       1  UNL         0.0630
     87 H          -1.3405   -2.1439   60.5760 H       1  UNL         0.1458
     88 H          -2.4498   -1.0535   59.7518 H       1  UNL         0.1458
     89 H           4.2429    1.9606   42.9452 H       1  UNL         0.0433
     90 H           3.3619    0.7745   43.9185 H       1  UNL         0.0433
     91 H           3.9828    2.2687   44.6772 H       1  UNL         0.0433
     92 H           2.7341    3.2609   38.0797 H       1  UNL         0.0280
     93 H           3.6051    3.3546   39.6116 H       1  UNL         0.0280
     94 H           2.1269    4.3081   39.3655 H       1  UNL         0.0280
@<TRIPOS>BOND
     1     1     2   ar
     2     1     6   ar
     3     1    52    1
     4     2     3   ar
     5     2    53    1
     6     3     4   ar
     7     3    51    1
     8     4     5   ar
     9     4     7    1
    10     5     6   ar
    11     5    54    1
    12     6    55    1
    13     7     8    1
    14     7    15    1
    15     7    56    1
    16     8     9   ar
    17     8    13   ar
    18     9    10   ar
    19     9    14    1
    20    10    11   ar
    21    10    57    1
    22    11    12   ar
    23    11    58    1
    24    12    13   ar
    25    12    59    1
    26    14    60    1
    27    14    61    1
    28    14    62    1
    29    15    16   am
    30    15    50    1
    31    16    17    2
    32    16    18    1
    33    18    19    1
    34    18    23    1
    35    18    63    1
    36    19    20    1
    37    19    64    1
    38    19    65    1
    39    20    21    1
    40    20    66    1
    41    20    67    1
    42    21    22    1
    43    21    24    1
    44    22    23    1
    45    22    68    1
    46    22    69    1
    47    23    70    1
    48    23    71    1
    49    24    25    1
    50    24    72    1
    51    24    73    1
    52    25    26    1
    53    25    74    1
    54    25    75    1
    55    26    27    1
    56    27    28   ar
    57    27    32   ar
    58    28    29   ar
    59    28    76    1
    60    29    30   ar
    61    29    77    1
    62    30    31   ar
    63    30    34    1
    64    31    32   ar
    65    31    78    1
    66    32    33    1
    67    34    35    1
    68    34    79    1
    69    35    36   ar
    70    35    40   ar
    71    36    37   ar
    72    36    80    1
    73    37    38   ar
    74    38    39   ar
    75    38    41    1
    76    39    40   ar
    77    39    81    1
    78    40    82    1
    79    41    42   ar
    80    41    46   ar
    81    42    43   ar
    82    42    83    1
    83    43    44   ar
    84    43    47    1
    85    44    45   ar
    86    44    84    1
    87    45    46   ar
    88    45    85    1
    89    46    86    1
    90    47    48    2
    91    47    49   am
    92    49    87    1
    93    49    88    1
    94    50    89    1
    95    50    90    1
    96    50    91    1
    97    51    92    1
    98    51    93    1
    99    51    94    1
@<TRIPOS>SUBSTRUCTURE
     1 UNL         1 TEMP              0 ****  ****    0 ROOT


##########                                Name:    ZINC001596273020
##########                DOCK_Rotatable_Bonds:                  11
##########                         Heavy_Atoms:                  25
##########                    Molecular_Weight:             355.478
##########                DOCK_Rotatable_Bonds:                  11
##########                       Formal_Charge:          -0.0499996
##########                     HBond_Acceptors:                   7
##########                        HBond_Donors:                   2
##########                         Heavy_Atoms:                  25
##########                          Grid_Score:          -44.707806
##########                     Grid_vdw_energy:          -36.289631
##########                      Grid_es_energy:           -8.418176
##########           Internal_energy_repulsive:           22.000832

@<TRIPOS>MOLECULE
ZINC001596273020
 58 59 1 0 0
SMALL
USER_CHARGES


@<TRIPOS>ATOM
      1 C1        -11.4030    2.3550   65.5930 C.3     1  ZINC001596273020   -0.1900
      2 C2        -10.8833    1.0257   65.0417 C.3     1  ZINC001596273020   -0.0200
      3 N3         -9.4379    1.1275   64.7999 N.4     1  ZINC001596273020   -0.3900
      4 H4         -9.2536    1.9072   64.1866 H       1  ZINC001596273020    0.4300
      5 C5         -8.7411    1.3334   66.0767 C.3     1  ZINC001596273020   -0.0100
      6 C6         -7.2338    1.4146   65.8277 C.3     1  ZINC001596273020   -0.1900
      7 C7         -8.9577   -0.1118   64.1743 C.3     1  ZINC001596273020   -0.0100
      8 C8         -9.8023   -0.4186   62.9359 C.3     1  ZINC001596273020    0.0300
      9 O9         -9.2091   -1.4972   62.2101 O.3     1  ZINC001596273020   -0.3900
     10 C10        -9.9820   -1.9403   61.0928 C.3     1  ZINC001596273020    0.0500
     11 C11        -9.1453   -2.8975   60.2415 C.3     1  ZINC001596273020    0.1400
     12 N12       -10.0104   -3.5686   59.2682 N.am    1  ZINC001596273020   -0.7500
     13 C13       -10.2485   -2.9968   58.0712 C.2     1  ZINC001596273020    0.7200
     14 O14        -9.7466   -1.9231   57.7998 O.2     1  ZINC001596273020   -0.6000
     15 N15       -11.0430   -3.6150   57.1751 N.am    1  ZINC001596273020   -0.6300
     16 C16       -11.7453   -4.9133   57.3263 C.3     1  ZINC001596273020    0.1100
     17 C17       -13.1414   -4.6493   56.6924 C.3     1  ZINC001596273020   -0.0800
     18 H18       -13.5122   -5.5620   56.2259 H       1  ZINC001596273020    0.1200
     19 C19       -14.0768   -4.2287   57.8083 C.3     1  ZINC001596273020   -0.1000
     20 C20       -15.1785   -3.2909   57.3350 C.3     1  ZINC001596273020   -0.1200
     21 C21       -14.5160   -2.0487   56.7246 C.3     1  ZINC001596273020   -0.1200
     22 C22       -13.8259   -2.4808   55.4348 C.3     1  ZINC001596273020   -0.0800
     23 C23       -12.8672   -3.6079   55.6298 C.3     1  ZINC001596273020   -0.1400
     24 C24       -12.8537   -4.3639   54.3263 C.2     1  ZINC001596273020    0.5000
     25 O25       -13.6644   -5.2528   54.1287 O.co2   1  ZINC001596273020   -0.6900
     26 O26       -12.0319   -4.0867   53.4693 O.co2   1  ZINC001596273020   -0.6900
     27 C27       -11.4175   -3.1477   55.8181 C.3     1  ZINC001596273020    0.1600
     28 H28       -10.9770    2.5300   66.5809 H       1  ZINC001596273020    0.0800
     29 H29       -11.1123    3.1645   64.9234 H       1  ZINC001596273020    0.0800
     30 H30       -12.4898    2.3174   65.6674 H       1  ZINC001596273020    0.1000
     31 H31       -11.0759    0.2326   65.7643 H       1  ZINC001596273020    0.1300
     32 H32       -11.3930    0.7964   64.1059 H       1  ZINC001596273020    0.1300
     33 H33        -9.0847    2.2620   66.5325 H       1  ZINC001596273020    0.1300
     34 H34        -8.9545    0.4997   66.7457 H       1  ZINC001596273020    0.1300
     35 H35        -6.8711    0.4489   65.4754 H       1  ZINC001596273020    0.0800
     36 H36        -7.0304    2.1759   65.0746 H       1  ZINC001596273020    0.0800
     37 H37        -6.7258    1.6768   66.7558 H       1  ZINC001596273020    0.1000
     38 H38        -7.9147    0.0093   63.8818 H       1  ZINC001596273020    0.1400
     39 H39        -9.0427   -0.9341   64.8848 H       1  ZINC001596273020    0.1400
     40 H40       -10.8098   -0.6983   63.2435 H       1  ZINC001596273020    0.1000
     41 H41        -9.8489    0.4653   62.2998 H       1  ZINC001596273020    0.0700
     42 H42       -10.8735   -2.4561   61.4495 H       1  ZINC001596273020    0.0700
     43 H43       -10.2759   -1.0808   60.4905 H       1  ZINC001596273020    0.0700
     44 H44        -8.3737   -2.3357   59.7152 H       1  ZINC001596273020    0.0900
     45 H45        -8.6772   -3.6419   60.8856 H       1  ZINC001596273020    0.0700
     46 H46       -10.4117   -4.4246   59.4851 H       1  ZINC001596273020    0.3900
     47 H47       -11.2199   -5.6991   56.7835 H       1  ZINC001596273020    0.0700
     48 H48       -11.8456   -5.1747   58.3798 H       1  ZINC001596273020    0.0600
     49 H49       -14.5344   -5.1199   58.2379 H       1  ZINC001596273020    0.0500
     50 H50       -13.4965   -3.7266   58.5825 H       1  ZINC001596273020    0.0400
     51 H51       -15.7889   -3.7901   56.5825 H       1  ZINC001596273020    0.0700
     52 H52       -15.8013   -2.9983   58.1803 H       1  ZINC001596273020    0.0500
     53 H53       -15.2733   -1.2962   56.5047 H       1  ZINC001596273020    0.0600
     54 H54       -13.7807   -1.6428   57.4193 H       1  ZINC001596273020    0.0500
     55 H55       -14.5866   -2.7870   54.7165 H       1  ZINC001596273020    0.0600
     56 H56       -13.2846   -1.6280   55.0250 H       1  ZINC001596273020    0.0600
     57 H57       -11.3526   -2.0616   55.7548 H       1  ZINC001596273020    0.0700
     58 H58       -10.7718   -3.6119   55.0727 H       1  ZINC001596273020    0.0700
@<TRIPOS>BOND
     1     1     2    1
     2     1    28    1
     3     1    29    1
     4     1    30    1
     5     2     3    1
     6     2    31    1
     7     2    32    1
     8     3     4    1
     9     3     5    1
    10     3     7    1
    11     5     6    1
    12     5    33    1
    13     5    34    1
    14     6    35    1
    15     6    36    1
    16     6    37    1
    17     7     8    1
    18     7    38    1
    19     7    39    1
    20     8     9    1
    21     8    40    1
    22     8    41    1
    23     9    10    1
    24    10    11    1
    25    10    42    1
    26    10    43    1
    27    11    12    1
    28    11    44    1
    29    11    45    1
    30    12    13   am
    31    12    46    1
    32    13    14    2
    33    13    15   am
    34    15    27    1
    35    15    16    1
    36    16    17    1
    37    16    47    1
    38    16    48    1
    39    17    18    1
    40    17    23    1
    41    17    19    1
    42    19    20    1
    43    19    49    1
    44    19    50    1
    45    20    21    1
    46    20    51    1
    47    20    52    1
    48    21    22    1
    49    21    53    1
    50    21    54    1
    51    22    23    1
    52    22    55    1
    53    22    56    1
    54    23    24    1
    55    23    27    1
    56    24    25   ar
    57    24    26   ar
    58    27    57    1
    59    27    58    1
@<TRIPOS>SUBSTRUCTURE
     1 ZINC001596273020        1 TEMP              0 ****  ****    0 ROOT


##########                                Name:     oleObject14.pdb
##########                DOCK_Rotatable_Bonds:                   9
##########                         Heavy_Atoms:                  33
##########                    Molecular_Weight:             484.424
##########                DOCK_Rotatable_Bonds:                   9
##########                       Formal_Charge:         0.000299782
##########                     HBond_Acceptors:                   7
##########                        HBond_Donors:                   1
##########                         Heavy_Atoms:                  33
##########                          Grid_Score:          -43.976761
##########                     Grid_vdw_energy:          -44.147335
##########                      Grid_es_energy:            0.170574
##########           Internal_energy_repulsive:           15.433516

@<TRIPOS>MOLECULE
oleObject14.pdb
 60 63 1 0 0
SMALL
NO_CHARGES


@<TRIPOS>ATOM
      1 C         -10.7351   -1.2156   61.6540 C.ar    1  UNL         0.0422
      2 C         -11.9645   -1.0195   61.0053 C.ar    1  UNL        -0.0408
      3 C         -12.3287   -1.8397   59.9244 C.ar    1  UNL        -0.0288
      4 C         -11.4615   -2.8633   59.4859 C.ar    1  UNL         0.0937
      5 C         -10.2288   -3.0533   60.1434 C.ar    1  UNL         0.0723
      6 C          -9.8673   -2.2316   61.2240 C.ar    1  UNL        -0.0221
      7 CL         -9.1215   -4.3133   59.6315 Cl      1  UNL        -0.0814
      8 O         -11.7819   -3.6913   58.4272 O.3     1  UNL        -0.3432
      9 C         -11.6788   -3.2958   57.0479 C.3     1  UNL         0.0661
     10 C         -12.2876   -4.4231   56.1883 C.3     1  UNL         0.0222
     11 N         -12.4800   -4.0449   54.7706 N.4     1  UNL        -0.3010
     12 C         -13.4792   -2.9719   54.5570 C.3     1  UNL        -0.0010
     13 C         -13.7195   -2.6991   53.0554 C.3     1  UNL        -0.0289
     14 C         -12.4124   -2.4004   52.2820 C.3     1  UNL         0.0382
     15 C         -11.3503   -3.4845   52.5947 C.3     1  UNL        -0.0289
     16 C         -11.1879   -3.7667   54.1068 C.3     1  UNL        -0.0010
     17 C         -11.8935   -0.9690   52.5660 C.2     1  UNL         0.2156
     18 O         -12.6468   -0.0569   52.8541 O.2     1  UNL        -0.2774
     19 N         -10.5290   -0.7110   52.5407 N.am    1  UNL        -0.3025
     20 C          -9.8512    0.5764   52.7834 C.3     1  UNL         0.0900
     21 C          -9.5243    0.8086   54.2574 C.ar    1  UNL        -0.0217
     22 C         -10.2988    0.2199   55.2775 C.ar    1  UNL        -0.0568
     23 C          -9.9910    0.4530   56.6278 C.ar    1  UNL        -0.0619
     24 C          -8.9046    1.2735   56.9697 C.ar    1  UNL        -0.0622
     25 C          -8.1247    1.8584   55.9598 C.ar    1  UNL        -0.0619
     26 C          -8.4327    1.6251   54.6096 C.ar    1  UNL        -0.0568
     27 C          -8.6001    0.7259   51.9232 C.ar    1  UNL         0.0652
     28 C          -7.8315   -0.3900   51.5321 C.ar    1  UNL        -0.0383
     29 C          -6.6852   -0.1871   50.7472 C.ar    1  UNL        -0.0588
     30 C          -6.3461    1.1248   50.3815 C.ar    1  UNL        -0.0438
     31 C          -7.1666    2.1800   50.8159 C.ar    1  UNL         0.0272
     32 N          -8.2677    1.9870   51.5699 N.ar    1  UNL        -0.2590
     33 CL        -10.2843   -0.1919   63.0006 Cl      1  UNL        -0.0843
     34 H         -12.6357   -0.2332   61.3389 H       1  UNL         0.0639
     35 H         -13.2839   -1.6705   59.4381 H       1  UNL         0.0652
     36 H          -8.9162   -2.3825   61.7267 H       1  UNL         0.0655
     37 H         -10.6266   -3.1415   56.7804 H       1  UNL         0.0586
     38 H         -12.2355   -2.3655   56.8766 H       1  UNL         0.0586
     39 H         -13.2597   -4.6863   56.6256 H       1  UNL         0.0455
     40 H         -11.6455   -5.3111   56.2546 H       1  UNL         0.0455
     41 H         -13.1398   -2.0481   55.0435 H       1  UNL         0.0431
     42 H         -14.4414   -3.2470   55.0041 H       1  UNL         0.0431
     43 H         -14.4273   -1.8700   52.9406 H       1  UNL         0.0288
     44 H         -14.1983   -3.5825   52.6134 H       1  UNL         0.0288
     45 H         -12.6347   -2.4950   51.2159 H       1  UNL         0.0402
     46 H         -10.3827   -3.1988   52.1626 H       1  UNL         0.0288
     47 H         -11.6486   -4.4192   52.1021 H       1  UNL         0.0288
     48 H         -10.7046   -2.9070   54.5879 H       1  UNL         0.0431
     49 H         -10.5161   -4.6264   54.2278 H       1  UNL         0.0431
     50 H          -9.9339   -1.5226   52.4340 H       1  UNL         0.1504
     51 H         -10.5447    1.3635   52.4607 H       1  UNL         0.0624
     52 H         -11.1460   -0.4115   55.0268 H       1  UNL         0.0626
     53 H         -10.5951   -0.0010   57.4081 H       1  UNL         0.0623
     54 H          -8.6663    1.4535   58.0142 H       1  UNL         0.0623
     55 H          -7.2815    2.4907   56.2227 H       1  UNL         0.0623
     56 H          -7.8216    2.0809   53.8354 H       1  UNL         0.0626
     57 H          -8.1161   -1.3944   51.8304 H       1  UNL         0.0643
     58 H          -6.0739   -1.0271   50.4304 H       1  UNL         0.0624
     59 H          -5.4668    1.3215   49.7752 H       1  UNL         0.0639
     60 H          -6.9351    3.2114   50.5526 H       1  UNL         0.0840
@<TRIPOS>BOND
     1     1     2   ar
     2     1     6   ar
     3     1    33    1
     4     2     3   ar
     5     2    34    1
     6     3     4   ar
     7     3    35    1
     8     4     5   ar
     9     4     8    1
    10     5     6   ar
    11     5     7    1
    12     6    36    1
    13     8     9    1
    14     9    10    1
    15     9    37    1
    16     9    38    1
    17    10    11    1
    18    10    39    1
    19    10    40    1
    20    11    12    1
    21    11    16    1
    22    12    13    1
    23    12    41    1
    24    12    42    1
    25    13    14    1
    26    13    43    1
    27    13    44    1
    28    14    15    1
    29    14    17    1
    30    14    45    1
    31    15    16    1
    32    15    46    1
    33    15    47    1
    34    16    48    1
    35    16    49    1
    36    17    18    2
    37    17    19   am
    38    19    20    1
    39    19    50    1
    40    20    21    1
    41    20    27    1
    42    20    51    1
    43    21    22   ar
    44    21    26   ar
    45    22    23   ar
    46    22    52    1
    47    23    24   ar
    48    23    53    1
    49    24    25   ar
    50    24    54    1
    51    25    26   ar
    52    25    55    1
    53    26    56    1
    54    27    28   ar
    55    27    32   ar
    56    28    29   ar
    57    28    57    1
    58    29    30   ar
    59    29    58    1
    60    30    31   ar
    61    30    59    1
    62    31    32   ar
    63    31    60    1
@<TRIPOS>SUBSTRUCTURE
     1 UNL         1 TEMP              0 ****  ****    0 ROOT


##########                                Name:    ZINC001591898574
##########                DOCK_Rotatable_Bonds:                  10
##########                         Heavy_Atoms:                  26
##########                    Molecular_Weight:             383.434
##########                DOCK_Rotatable_Bonds:                  10
##########                       Formal_Charge:         5.96046e-08
##########                     HBond_Acceptors:                  13
##########                        HBond_Donors:                   3
##########                         Heavy_Atoms:                  26
##########                          Grid_Score:          -43.144611
##########                     Grid_vdw_energy:          -40.559120
##########                      Grid_es_energy:           -2.585492
##########           Internal_energy_repulsive:           11.860102

@<TRIPOS>MOLECULE
ZINC001591898574
 47 48 1 0 0
SMALL
USER_CHARGES


@<TRIPOS>ATOM
      1 C1        -15.1534   -4.1449   56.9114 C.3     1  ZINC001591898574   -0.1100
      2 C2        -13.6588   -3.9845   56.8038 C.ar    1  ZINC001591898574    0.2300
      3 C3        -12.8965   -3.7578   57.9360 C.ar    1  ZINC001591898574   -0.2400
      4 C4        -11.5144   -3.6155   57.7903 C.ar    1  ZINC001591898574    0.3000
      5 C5        -10.6534   -3.3715   58.9741 C.2     1  ZINC001591898574    0.2100
      6 N6         -9.3617   -3.6164   59.0722 N.2     1  ZINC001591898574   -0.2500
      7 N7         -8.9829   -3.2676   60.2536 N.pl3   1  ZINC001591898574   -0.2200
      8 N8         -9.9930   -2.8096   60.9070 N.2     1  ZINC001591898574   -0.0400
      9 N9        -11.0364   -2.8537   60.1499 N.2     1  ZINC001591898574   -0.2500
     10 N10       -10.9818   -3.7025   56.5741 N.ar    1  ZINC001591898574   -0.5500
     11 C11       -11.7478   -3.9206   55.5166 C.ar    1  ZINC001591898574    0.5800
     12 N12       -11.1618   -4.0057   54.2655 N.pl3   1  ZINC001591898574   -0.7000
     13 C13       -11.9873   -4.2820   53.0872 C.3     1  ZINC001591898574    0.1400
     14 C14       -12.5744   -2.9721   52.5574 C.3     1  ZINC001591898574   -0.1500
     15 C15       -11.5373   -2.2658   51.6819 C.3     1  ZINC001591898574    0.1200
     16 N16       -10.9639   -1.1368   52.4186 N.am    1  ZINC001591898574   -0.7300
     17 C17        -9.6374   -0.9034   52.3686 C.2     1  ZINC001591898574    0.4900
     18 O18        -8.9186   -1.6272   51.7125 O.2     1  ZINC001591898574   -0.5300
     19 C19        -9.0473    0.2568   53.1280 C.3     1  ZINC001591898574    0.1000
     20 N20        -9.0531    1.4501   52.2780 N.am    1  ZINC001591898574   -0.9800
     21 C21       -10.3127    2.1436   51.9974 C.3     1  ZINC001591898574    0.1000
     22 S22        -7.6356    2.0152   51.6345 S.o2    1  ZINC001591898574    2.6100
     23 C23        -7.0185    0.6417   50.6230 C.3     1  ZINC001591898574   -0.6600
     24 O24        -8.0337    3.1020   50.8102 O.2     1  ZINC001591898574   -0.9500
     25 O25        -6.7960    2.2203   52.7625 O.2     1  ZINC001591898574   -0.9600
     26 N26       -13.0605   -4.0644   55.6258 N.ar    1  ZINC001591898574   -0.5600
     27 H27       -15.3958   -5.1963   57.0660 H       1  ZINC001591898574    0.0900
     28 H28       -15.5220   -3.5595   57.7538 H       1  ZINC001591898574    0.0900
     29 H29       -15.6235   -3.7950   55.9924 H       1  ZINC001591898574    0.0900
     30 H30       -13.3592   -3.6919   58.9097 H       1  ZINC001591898574    0.1600
     31 H31        -8.0784   -3.3391   60.5967 H       1  ZINC001591898574    0.4800
     32 H32       -10.2046   -3.8823   54.1689 H       1  ZINC001591898574    0.4200
     33 H33       -11.3736   -4.7441   52.3139 H       1  ZINC001591898574    0.0700
     34 H34       -12.7968   -4.9584   53.3612 H       1  ZINC001591898574    0.0700
     35 H35       -13.4644   -3.1859   51.9656 H       1  ZINC001591898574    0.0800
     36 H36       -12.8412   -2.3284   53.3955 H       1  ZINC001591898574    0.0800
     37 H37       -10.7458   -2.9673   51.4184 H       1  ZINC001591898574    0.0700
     38 H38       -12.0167   -1.9010   50.7734 H       1  ZINC001591898574    0.0700
     39 H39       -11.5389   -0.5572   52.9424 H       1  ZINC001591898574    0.4000
     40 H40        -9.6409    0.4452   54.0225 H       1  ZINC001591898574    0.1200
     41 H41        -8.0228    0.0201   53.4148 H       1  ZINC001591898574    0.1300
     42 H42       -10.4844    2.9065   52.7567 H       1  ZINC001591898574    0.0600
     43 H43       -10.2576    2.6139   51.0157 H       1  ZINC001591898574    0.0700
     44 H44       -11.1332    1.4262   52.0111 H       1  ZINC001591898574    0.0700
     45 H45        -7.7493    0.4025   49.8504 H       1  ZINC001591898574    0.1300
     46 H46        -6.0766    0.9292   50.1557 H       1  ZINC001591898574    0.1200
     47 H47        -6.8588   -0.2319   51.2550 H       1  ZINC001591898574    0.1300
@<TRIPOS>BOND
     1     1     2    1
     2     1    27    1
     3     1    28    1
     4     1    29    1
     5     2    26   ar
     6     2     3   ar
     7     3     4   ar
     8     3    30    1
     9     4     5    1
    10     4    10   ar
    11     5     9    1
    12     5     6    2
    13     6     7    1
    14     7     8    1
    15     7    31    1
    16     8     9    2
    17    10    11   ar
    18    11    12    1
    19    11    26   ar
    20    12    13    1
    21    12    32    1
    22    13    14    1
    23    13    33    1
    24    13    34    1
    25    14    15    1
    26    14    35    1
    27    14    36    1
    28    15    16    1
    29    15    37    1
    30    15    38    1
    31    16    17   am
    32    16    39    1
    33    17    18    2
    34    17    19    1
    35    19    20    1
    36    19    40    1
    37    19    41    1
    38    20    21    1
    39    20    22   am
    40    21    42    1
    41    21    43    1
    42    21    44    1
    43    22    23    1
    44    22    24    2
    45    22    25    2
    46    23    45    1
    47    23    46    1
    48    23    47    1
@<TRIPOS>SUBSTRUCTURE
     1 ZINC001591898574        1 TEMP              0 ****  ****    0 ROOT


##########                                Name:    ZINC000599797189
##########                DOCK_Rotatable_Bonds:                  13
##########                         Heavy_Atoms:                  23
##########                    Molecular_Weight:             329.313
##########                DOCK_Rotatable_Bonds:                  13
##########                       Formal_Charge:          0.00999949
##########                     HBond_Acceptors:                  11
##########                        HBond_Donors:                   3
##########                         Heavy_Atoms:                  23
##########                          Grid_Score:          -42.882530
##########                     Grid_vdw_energy:          -36.681923
##########                      Grid_es_energy:           -6.200607
##########           Internal_energy_repulsive:           13.034573

@<TRIPOS>MOLECULE
ZINC000599797189
 42 42 1 0 0
SMALL
USER_CHARGES


@<TRIPOS>ATOM
      1 C1        -15.7381   -3.9295   58.6264 C.3     1  ZINC000599797189   -0.1500
      2 C2        -14.8920   -4.6136   57.5507 C.3     1  ZINC000599797189    0.0600
      3 O3        -13.5069   -4.6632   57.9833 O.3     1  ZINC000599797189   -0.3600
      4 C4        -12.6033   -5.0889   57.0867 C.2     1  ZINC000599797189    0.4500
      5 O5        -12.9464   -5.3400   55.9558 O.2     1  ZINC000599797189   -0.4800
      6 C6        -11.1608   -5.2538   57.4907 C.3     1  ZINC000599797189    0.1500
      7 N7        -10.7060   -4.0448   58.1818 N.pl3   1  ZINC000599797189   -0.3800
      8 C8        -10.8299   -2.7778   57.7519 C.2     1  ZINC000599797189    0.2800
      9 N9        -10.3008   -1.9875   58.6508 N.2     1  ZINC000599797189   -0.5100
     10 C10        -9.8288   -2.7129   59.6690 C.2     1  ZINC000599797189    0.4700
     11 N11        -9.1969   -2.2030   60.8080 N.am    1  ZINC000599797189   -0.6400
     12 C12        -9.8788   -1.4117   61.6598 C.2     1  ZINC000599797189    0.7100
     13 O13       -11.0428   -1.1399   61.4373 O.2     1  ZINC000599797189   -0.5300
     14 N14        -9.2704   -0.9218   62.7581 N.am    1  ZINC000599797189   -0.7300
     15 C15       -10.0121   -0.0632   63.6848 C.3     1  ZINC000599797189    0.1100
     16 C16        -9.2894   -0.0236   65.0328 C.3     1  ZINC000599797189    0.1100
     17 H17        -9.9901    0.2764   65.8120 H       1  ZINC000599797189    0.1200
     18 O18        -8.7699   -1.3206   65.3330 O.3     1  ZINC000599797189   -0.5400
     19 C19        -8.1394    0.9833   64.9656 C.3     1  ZINC000599797189   -0.1500
     20 C20        -7.4247    1.0189   66.2917 C.2     1  ZINC000599797189    0.4600
     21 O21        -6.4941    0.2758   66.4966 O.2     1  ZINC000599797189   -0.4900
     22 O22        -7.8217    1.8760   67.2453 O.3     1  ZINC000599797189   -0.3600
     23 C23        -8.9460    2.7390   66.9294 C.3     1  ZINC000599797189    0.0400
     24 N24       -10.0600   -3.9811   59.4272 N.2     1  ZINC000599797189   -0.3200
     25 H25       -16.7780   -3.8923   58.3017 H       1  ZINC000599797189    0.0800
     26 H26       -15.6679   -4.4930   59.5567 H       1  ZINC000599797189    0.0700
     27 H27       -15.3712   -2.9158   58.7871 H       1  ZINC000599797189    0.0700
     28 H28       -15.2590   -5.6274   57.3900 H       1  ZINC000599797189    0.0700
     29 H29       -14.9622   -4.0500   56.6203 H       1  ZINC000599797189    0.0700
     30 H30       -11.0659   -6.1109   58.1573 H       1  ZINC000599797189    0.1500
     31 H31       -10.5508   -5.4154   56.6020 H       1  ZINC000599797189    0.1300
     32 H32       -11.2869   -2.4656   56.8245 H       1  ZINC000599797189    0.2300
     33 H33        -8.2679   -2.4189   60.9849 H       1  ZINC000599797189    0.4200
     34 H34        -8.3414   -1.1378   62.9350 H       1  ZINC000599797189    0.4000
     35 H35       -10.0736    0.9452   63.2757 H       1  ZINC000599797189    0.0800
     36 H36       -11.0175   -0.4610   63.8231 H       1  ZINC000599797189    0.0800
     37 H37        -8.1002   -1.6304   64.7079 H       1  ZINC000599797189    0.3800
     38 H38        -7.4406    0.6852   64.1841 H       1  ZINC000599797189    0.1200
     39 H39        -8.5361    1.9733   64.7399 H       1  ZINC000599797189    0.1200
     40 H40        -8.6988    3.3561   66.0655 H       1  ZINC000599797189    0.0600
     41 H41        -9.8199    2.1286   66.7019 H       1  ZINC000599797189    0.0600
     42 H42        -9.1630    3.3802   67.7838 H       1  ZINC000599797189    0.1000
@<TRIPOS>BOND
     1     1     2    1
     2     1    25    1
     3     1    26    1
     4     1    27    1
     5     2     3    1
     6     2    28    1
     7     2    29    1
     8     3     4    1
     9     4     5    2
    10     4     6    1
    11     6     7    1
    12     6    30    1
    13     6    31    1
    14     7    24    1
    15     7     8    1
    16     8     9    2
    17     8    32    1
    18     9    10    1
    19    10    11    1
    20    10    24    2
    21    11    12   am
    22    11    33    1
    23    12    13    2
    24    12    14   am
    25    14    15    1
    26    14    34    1
    27    15    16    1
    28    15    35    1
    29    15    36    1
    30    16    17    1
    31    16    18    1
    32    16    19    1
    33    18    37    1
    34    19    20    1
    35    19    38    1
    36    19    39    1
    37    20    21    2
    38    20    22    1
    39    22    23    1
    40    23    40    1
    41    23    41    1
    42    23    42    1
@<TRIPOS>SUBSTRUCTURE
     1 ZINC000599797189        1 TEMP              0 ****  ****    0 ROOT


##########                                Name:    ZINC000434204837
##########                DOCK_Rotatable_Bonds:                   7
##########                         Heavy_Atoms:                  29
##########                    Molecular_Weight:             406.511
##########                DOCK_Rotatable_Bonds:                   7
##########                       Formal_Charge:          -0.0200002
##########                     HBond_Acceptors:                   8
##########                        HBond_Donors:                   0
##########                         Heavy_Atoms:                  29
##########                          Grid_Score:          -41.157173
##########                     Grid_vdw_energy:          -40.814884
##########                      Grid_es_energy:           -0.342287
##########           Internal_energy_repulsive:           25.749105

@<TRIPOS>MOLECULE
ZINC000434204837
 51 54 1 0 0
SMALL
USER_CHARGES


@<TRIPOS>ATOM
      1 C1         -5.8709    3.4659   53.6370 C.3     1  ZINC000434204837   -0.1300
      2 C2         -5.3038    2.7643   52.4298 C.ar    1  ZINC000434204837   -0.0700
      3 C3         -3.9482    2.8263   52.1679 C.ar    1  ZINC000434204837   -0.1200
      4 C4         -3.4280    2.1827   51.0603 C.ar    1  ZINC000434204837   -0.1100
      5 C5         -4.2635    1.4771   50.2152 C.ar    1  ZINC000434204837   -0.1300
      6 C6         -5.6195    1.4144   50.4777 C.ar    1  ZINC000434204837   -0.0900
      7 C7         -6.1390    2.0542   51.5873 C.ar    1  ZINC000434204837   -0.1000
      8 C8         -7.6170    1.9858   51.8733 C.3     1  ZINC000434204837    0.0100
      9 C9         -8.0853    0.5581   51.7589 C.2     1  ZINC000434204837    0.2000
     10 N10        -9.2215    0.0714   52.1969 N.2     1  ZINC000434204837   -0.4600
     11 C11        -9.2044   -1.2342   51.8747 C.2     1  ZINC000434204837    0.1700
     12 C12       -10.2903   -2.2385   52.1634 C.3     1  ZINC000434204837   -0.0300
     13 S13       -11.2689   -1.6786   53.5794 S.3     1  ZINC000434204837    0.0900
     14 C14       -12.1924   -3.1422   53.9109 C.2     1  ZINC000434204837    0.2100
     15 N15       -12.7373   -3.9419   53.0196 N.2     1  ZINC000434204837   -0.3300
     16 N16       -13.3389   -4.9175   53.5986 N.2     1  ZINC000434204837   -0.0200
     17 N17       -13.2272   -4.8183   54.8788 N.2     1  ZINC000434204837   -0.0700
     18 N18       -12.4711   -3.6607   55.1335 N.pl3   1  ZINC000434204837   -0.3100
     19 C19       -12.0932   -3.1478   56.3825 C.ar    1  ZINC000434204837    0.1100
     20 C20       -12.7445   -2.0386   56.9049 C.ar    1  ZINC000434204837   -0.1100
     21 C21       -12.3703   -1.5357   58.1357 C.ar    1  ZINC000434204837   -0.0900
     22 C22       -11.3477   -2.1358   58.8473 C.ar    1  ZINC000434204837   -0.0600
     23 C23       -10.9418   -1.5847   60.1900 C.3     1  ZINC000434204837   -0.0600
     24 C24       -10.2063   -0.2573   59.9953 C.3     1  ZINC000434204837   -0.1500
     25 C25       -12.1895   -1.3558   61.0455 C.3     1  ZINC000434204837   -0.1500
     26 C26       -10.6971   -3.2407   58.3296 C.ar    1  ZINC000434204837   -0.1000
     27 C27       -11.0707   -3.7514   57.1019 C.ar    1  ZINC000434204837   -0.0900
     28 N28        -8.0796   -1.4706   51.2684 N.2     1  ZINC000434204837   -0.3600
     29 O29        -7.4247   -0.4529   51.1866 O.3     1  ZINC000434204837    0.0900
     30 H30        -5.8560    2.7888   54.4911 H       1  ZINC000434204837    0.0800
     31 H31        -5.2694    4.3468   53.8613 H       1  ZINC000434204837    0.0700
     32 H32        -6.8976    3.7694   53.4320 H       1  ZINC000434204837    0.0700
     33 H33        -3.2953    3.3777   52.8283 H       1  ZINC000434204837    0.1300
     34 H34        -2.3687    2.2317   50.8554 H       1  ZINC000434204837    0.1200
     35 H35        -3.8572    0.9749   49.3497 H       1  ZINC000434204837    0.1300
     36 H36        -6.2724    0.8633   49.8171 H       1  ZINC000434204837    0.1300
     37 H37        -7.8091    2.3516   52.8820 H       1  ZINC000434204837    0.1200
     38 H38        -8.1551    2.6034   51.1542 H       1  ZINC000434204837    0.1200
     39 H39       -10.9364   -2.3359   51.2910 H       1  ZINC000434204837    0.1300
     40 H40        -9.8402   -3.2045   52.3919 H       1  ZINC000434204837    0.1400
     41 H41       -13.5427   -1.5691   56.3492 H       1  ZINC000434204837    0.1400
     42 H42       -12.8766   -0.6730   58.5426 H       1  ZINC000434204837    0.1400
     43 H43       -10.2836   -2.2949   60.6902 H       1  ZINC000434204837    0.0800
     44 H44       -10.8647    0.4529   59.4950 H       1  ZINC000434204837    0.0600
     45 H45        -9.9128    0.1412   60.9664 H       1  ZINC000434204837    0.0600
     46 H46        -9.3175   -0.4204   59.3857 H       1  ZINC000434204837    0.0600
     47 H47       -12.7135   -2.3015   61.1842 H       1  ZINC000434204837    0.0600
     48 H48       -11.8959   -0.9572   62.0166 H       1  ZINC000434204837    0.0600
     49 H49       -12.8478   -0.6456   60.5452 H       1  ZINC000434204837    0.0600
     50 H50        -9.8985   -3.7070   58.8876 H       1  ZINC000434204837    0.1400
     51 H51       -10.5622   -4.6144   56.6981 H       1  ZINC000434204837    0.1400
@<TRIPOS>BOND
     1     1     2    1
     2     1    30    1
     3     1    31    1
     4     1    32    1
     5     2     7   ar
     6     2     3   ar
     7     3     4   ar
     8     3    33    1
     9     4     5   ar
    10     4    34    1
    11     5     6   ar
    12     5    35    1
    13     6     7   ar
    14     6    36    1
    15     7     8    1
    16     8     9    1
    17     8    37    1
    18     8    38    1
    19     9    29    1
    20     9    10    2
    21    10    11    1
    22    11    12    1
    23    11    28    2
    24    12    13    1
    25    12    39    1
    26    12    40    1
    27    13    14    1
    28    14    18    1
    29    14    15    2
    30    15    16    1
    31    16    17    2
    32    17    18    1
    33    18    19    1
    34    19    27   ar
    35    19    20   ar
    36    20    21   ar
    37    20    41    1
    38    21    22   ar
    39    21    42    1
    40    22    23    1
    41    22    26   ar
    42    23    24    1
    43    23    25    1
    44    23    43    1
    45    24    44    1
    46    24    45    1
    47    24    46    1
    48    25    47    1
    49    25    48    1
    50    25    49    1
    51    26    27   ar
    52    26    50    1
    53    27    51    1
    54    28    29    1
@<TRIPOS>SUBSTRUCTURE
     1 ZINC000434204837        1 TEMP              0 ****  ****    0 ROOT


##########                                Name:     oleObject52.pdb
##########                DOCK_Rotatable_Bonds:                  10
##########                         Heavy_Atoms:                  38
##########                    Molecular_Weight:              533.07
##########                DOCK_Rotatable_Bonds:                  10
##########                       Formal_Charge:         0.000300027
##########                     HBond_Acceptors:                   8
##########                        HBond_Donors:                   0
##########                         Heavy_Atoms:                  38
##########                          Grid_Score:          -41.139515
##########                     Grid_vdw_energy:          -40.789627
##########                      Grid_es_energy:           -0.349889
##########           Internal_energy_repulsive:           25.490223

@<TRIPOS>MOLECULE
oleObject52.pdb
 71 74 1 0 0
SMALL
NO_CHARGES


@<TRIPOS>ATOM
      1 C          -9.7342   -1.1697   61.8875 C.ar    1  UNL        -0.0596
      2 C          -9.6957   -2.2093   60.9462 C.ar    1  UNL        -0.0314
      3 C         -10.5936   -2.2197   59.8575 C.ar    1  UNL         0.0800
      4 C         -11.5357   -1.1750   59.7117 C.ar    1  UNL         0.0089
      5 C         -11.5660   -0.1393   60.6703 C.ar    1  UNL        -0.0541
      6 C         -10.6702   -0.1358   61.7500 C.ar    1  UNL        -0.0617
      7 C         -12.5133   -1.1960   58.5267 C.3     1  UNL         0.0953
      8 C         -13.5516   -2.3259   58.6414 C.ar    1  UNL         0.0684
      9 C         -14.0409   -3.0117   57.5013 C.ar    1  UNL        -0.0272
     10 C         -14.9810   -4.0420   57.6912 C.ar    1  UNL        -0.0559
     11 C         -15.3985   -4.3553   58.9927 C.ar    1  UNL        -0.0435
     12 C         -14.8597   -3.6284   60.0645 C.ar    1  UNL         0.0272
     13 N         -13.9605   -2.6415   59.8934 N.ar    1  UNL        -0.2587
     14 C         -13.5724   -2.6815   56.0894 C.3     1  UNL        -0.0379
     15 N         -13.0885    0.1361   58.1838 N.am    1  UNL        -0.2917
     16 C         -12.3276    1.0708   57.4735 C.2     1  UNL         0.2180
     17 O         -12.6812    2.2368   57.4155 O.2     1  UNL        -0.2772
     18 C         -10.8885    0.6590   57.0707 C.3     1  UNL         0.0385
     19 C          -9.9131    1.8607   57.0903 C.3     1  UNL        -0.0289
     20 C         -10.1367    2.8097   55.8932 C.3     1  UNL        -0.0010
     21 N         -10.0204    2.0931   54.6019 N.4     1  UNL        -0.3010
     22 C         -10.9472    0.9448   54.4962 C.3     1  UNL        -0.0010
     23 C         -10.8191   -0.0381   55.6860 C.3     1  UNL        -0.0289
     24 C         -10.1079    2.9668   53.4107 C.3     1  UNL         0.0222
     25 C          -8.7318    3.3815   52.8501 C.3     1  UNL         0.0661
     26 O          -8.0188    2.1807   52.5043 O.3     1  UNL        -0.3432
     27 C          -6.7242    2.1720   52.0220 C.ar    1  UNL         0.0937
     28 C          -5.8343    3.2432   52.2475 C.ar    1  UNL        -0.0289
     29 C          -4.5255    3.1943   51.7394 C.ar    1  UNL        -0.0417
     30 C          -4.0932    2.0779   51.0029 C.ar    1  UNL         0.0537
     31 C          -4.9762    1.0087   50.7763 C.ar    1  UNL        -0.0230
     32 C          -6.2856    1.0548   51.2833 C.ar    1  UNL         0.0721
     33 CL         -7.3580   -0.2990   50.9792 Cl      1  UNL        -0.0814
     34 C          -2.7561    2.0303   50.4848 C.1     1  UNL         0.0992
     35 N          -1.6769    2.0021   50.0703 N.1     1  UNL        -0.1924
     36 C         -14.4600    0.4186   58.6603 C.3     1  UNL         0.0037
     37 O         -10.5811   -3.2389   58.9205 O.3     1  UNL        -0.3490
     38 C          -9.7528   -4.4092   59.0242 C.3     1  UNL         0.0422
     39 H          -9.0406   -1.1675   62.7234 H       1  UNL         0.0624
     40 H          -8.9648   -3.0005   61.0746 H       1  UNL         0.0651
     41 H         -12.2835    0.6697   60.5870 H       1  UNL         0.0627
     42 H         -10.7029    0.6682   62.4796 H       1  UNL         0.0623
     43 H         -11.8883   -1.4613   57.6668 H       1  UNL         0.0627
     44 H         -15.3781   -4.5951   56.8449 H       1  UNL         0.0627
     45 H         -16.1204   -5.1472   59.1683 H       1  UNL         0.0639
     46 H         -15.1540   -3.8434   61.0910 H       1  UNL         0.0840
     47 H         -13.6605   -1.6095   55.8835 H       1  UNL         0.0280
     48 H         -14.1642   -3.2097   55.3316 H       1  UNL         0.0280
     49 H         -12.5227   -2.9686   55.9485 H       1  UNL         0.0280
     50 H         -10.5351   -0.0777   57.7997 H       1  UNL         0.0402
     51 H          -8.8827    1.4841   57.0505 H       1  UNL         0.0288
     52 H         -10.0024    2.4176   58.0301 H       1  UNL         0.0288
     53 H          -9.3930    3.6123   55.9582 H       1  UNL         0.0431
     54 H         -11.1318    3.2673   55.9738 H       1  UNL         0.0431
     55 H         -10.7490    0.3928   53.5684 H       1  UNL         0.0431
     56 H         -11.9791    1.3132   54.4382 H       1  UNL         0.0431
     57 H          -9.8531   -0.5527   55.6018 H       1  UNL         0.0288
     58 H         -11.5918   -0.8142   55.6141 H       1  UNL         0.0288
     59 H         -10.6840    3.8700   53.6513 H       1  UNL         0.0455
     60 H         -10.6453    2.4361   52.6139 H       1  UNL         0.0455
     61 H          -8.1811    3.9439   53.6149 H       1  UNL         0.0586
     62 H          -8.8586    4.0104   51.9607 H       1  UNL         0.0586
     63 H          -6.1434    4.1161   52.8135 H       1  UNL         0.0651
     64 H          -3.8482    4.0252   51.9194 H       1  UNL         0.0638
     65 H          -4.6494    0.1419   50.2078 H       1  UNL         0.0653
     66 H         -14.6818   -0.1544   59.5679 H       1  UNL         0.0433
     67 H         -15.1884    0.1528   57.8844 H       1  UNL         0.0433
     68 H         -14.5660    1.4795   58.9149 H       1  UNL         0.0433
     69 H          -9.9322   -5.0676   58.1654 H       1  UNL         0.0535
     70 H          -9.9860   -4.9640   59.9419 H       1  UNL         0.0535
     71 H          -8.6919   -4.1293   59.0314 H       1  UNL         0.0535
@<TRIPOS>BOND
     1     1     2   ar
     2     1     6   ar
     3     1    39    1
     4     2     3   ar
     5     2    40    1
     6     3     4   ar
     7     3    37    1
     8     4     5   ar
     9     4     7    1
    10     5     6   ar
    11     5    41    1
    12     6    42    1
    13     7     8    1
    14     7    15    1
    15     7    43    1
    16     8     9   ar
    17     8    13   ar
    18     9    10   ar
    19     9    14    1
    20    10    11   ar
    21    10    44    1
    22    11    12   ar
    23    11    45    1
    24    12    13   ar
    25    12    46    1
    26    14    47    1
    27    14    48    1
    28    14    49    1
    29    15    16   am
    30    15    36    1
    31    16    17    2
    32    16    18    1
    33    18    19    1
    34    18    23    1
    35    18    50    1
    36    19    20    1
    37    19    51    1
    38    19    52    1
    39    20    21    1
    40    20    53    1
    41    20    54    1
    42    21    22    1
    43    21    24    1
    44    22    23    1
    45    22    55    1
    46    22    56    1
    47    23    57    1
    48    23    58    1
    49    24    25    1
    50    24    59    1
    51    24    60    1
    52    25    26    1
    53    25    61    1
    54    25    62    1
    55    26    27    1
    56    27    28   ar
    57    27    32   ar
    58    28    29   ar
    59    28    63    1
    60    29    30   ar
    61    29    64    1
    62    30    31   ar
    63    30    34    1
    64    31    32   ar
    65    31    65    1
    66    32    33    1
    67    34    35    3
    68    36    66    1
    69    36    67    1
    70    36    68    1
    71    37    38    1
    72    38    69    1
    73    38    70    1
    74    38    71    1
@<TRIPOS>SUBSTRUCTURE
     1 UNL         1 TEMP              0 ****  ****    0 ROOT


##########                                Name:    ZINC000508765459
##########                DOCK_Rotatable_Bonds:                  10
##########                         Heavy_Atoms:                  29
##########                    Molecular_Weight:               405.5
##########                DOCK_Rotatable_Bonds:                  10
##########                       Formal_Charge:         -6.4075e-07
##########                     HBond_Acceptors:                  10
##########                        HBond_Donors:                   1
##########                         Heavy_Atoms:                  29
##########                          Grid_Score:          -41.102043
##########                     Grid_vdw_energy:          -39.609711
##########                      Grid_es_energy:           -1.492334
##########           Internal_energy_repulsive:           14.641303

@<TRIPOS>MOLECULE
ZINC000508765459
 60 62 1 0 0
SMALL
USER_CHARGES


@<TRIPOS>ATOM
      1 C1        -11.1900    1.3517   64.9457 C.3     1  ZINC000508765459    0.0300
      2 O2        -11.9615    0.9043   63.8291 O.3     1  ZINC000508765459   -0.3900
      3 C3        -11.3971   -0.2156   63.1442 C.3     1  ZINC000508765459    0.0500
      4 C4        -10.4310    0.2797   62.0662 C.3     1  ZINC000508765459    0.1100
      5 N5        -10.3352   -0.7200   60.9996 N.am    1  ZINC000508765459   -0.5900
      6 C6        -11.2074   -0.5627   59.8438 C.3     1  ZINC000508765459    0.1000
      7 C7        -10.6431   -1.3084   58.6328 C.3     1  ZINC000508765459    0.1200
      8 N8        -10.2396   -2.6557   59.0697 N.am    1  ZINC000508765459   -0.6400
      9 C9        -10.8083   -3.7611   58.5493 C.2     1  ZINC000508765459    0.7100
     10 O10       -10.4574   -4.8616   58.9290 O.2     1  ZINC000508765459   -0.5800
     11 N11       -11.7660   -3.6467   57.6079 N.am    1  ZINC000508765459   -0.7400
     12 C12       -12.3855   -4.8484   57.0434 C.3     1  ZINC000508765459    0.1400
     13 C13       -13.1023   -4.4886   55.7404 C.3     1  ZINC000508765459   -0.1400
     14 C14       -12.5093   -3.1979   55.1718 C.3     1  ZINC000508765459    0.0600
     15 N15       -12.9347   -3.0374   53.7751 N.3     1  ZINC000508765459   -0.5400
     16 C16       -11.9926   -2.1891   53.0316 C.3     1  ZINC000508765459    0.0500
     17 C17       -12.4268   -2.1121   51.5661 C.3     1  ZINC000508765459    0.0700
     18 N18       -13.7911   -1.5711   51.4899 N.3     1  ZINC000508765459   -0.4600
     19 C19       -14.1919   -1.4199   50.1738 C.ar    1  ZINC000508765459    0.4900
     20 N20       -14.8958   -2.3831   49.5974 N.ar    1  ZINC000508765459   -0.5500
     21 C21       -15.2949   -2.2700   48.3413 C.ar    1  ZINC000508765459    0.1700
     22 C22       -14.9679   -1.1272   47.6285 C.ar    1  ZINC000508765459   -0.2600
     23 C23       -14.2305   -0.1392   48.2619 C.ar    1  ZINC000508765459    0.1700
     24 N24       -13.8672   -0.3130   49.5219 N.ar    1  ZINC000508765459   -0.5300
     25 C25       -14.7332   -2.4192   52.2333 C.3     1  ZINC000508765459    0.0700
     26 C26       -14.2990   -2.4963   53.6988 C.3     1  ZINC000508765459    0.0600
     27 C27        -9.1907   -2.7457   60.0963 C.3     1  ZINC000508765459    0.1000
     28 C28        -9.4515   -1.7073   61.1527 C.2     1  ZINC000508765459    0.5100
     29 O29        -8.8361   -1.7757   62.1955 O.2     1  ZINC000508765459   -0.5400
     30 H30       -10.1978    1.6491   64.6061 H       1  ZINC000508765459    0.0400
     31 H31       -11.6851    2.2040   65.4114 H       1  ZINC000508765459    0.0900
     32 H32       -11.0986    0.5436   65.6714 H       1  ZINC000508765459    0.0400
     33 H33       -10.8583   -0.8423   63.8548 H       1  ZINC000508765459    0.0500
     34 H34       -12.1938   -0.7962   62.6790 H       1  ZINC000508765459    0.0600
     35 H35       -10.7988    1.2186   61.6522 H       1  ZINC000508765459    0.1100
     36 H36        -9.4461    0.4377   62.5058 H       1  ZINC000508765459    0.0900
     37 H37       -12.1939   -0.9602   60.0820 H       1  ZINC000508765459    0.0700
     38 H38       -11.2966    0.4966   59.6032 H       1  ZINC000508765459    0.1000
     39 H39       -11.4076   -1.3859   57.8598 H       1  ZINC000508765459    0.1200
     40 H40        -9.7773   -0.7736   58.2424 H       1  ZINC000508765459    0.0800
     41 H41       -12.0452   -2.7689   57.3041 H       1  ZINC000508765459    0.4000
     42 H42       -11.6158   -5.5931   56.8410 H       1  ZINC000508765459    0.0700
     43 H43       -13.1056   -5.2540   57.7542 H       1  ZINC000508765459    0.0700
     44 H44       -12.9733   -5.2961   55.0198 H       1  ZINC000508765459    0.0700
     45 H45       -14.1645   -4.3441   55.9380 H       1  ZINC000508765459    0.0800
     46 H46       -12.8589   -2.3482   55.7581 H       1  ZINC000508765459    0.0800
     47 H47       -11.4212   -3.2474   55.2168 H       1  ZINC000508765459    0.0400
     48 H48       -11.9869   -1.1879   53.4624 H       1  ZINC000508765459    0.0500
     49 H49       -10.9921   -2.6173   53.0924 H       1  ZINC000508765459    0.0900
     50 H50       -11.7460   -1.4601   51.0189 H       1  ZINC000508765459    0.0900
     51 H51       -12.4064   -3.1099   51.1277 H       1  ZINC000508765459    0.0600
     52 H52       -15.8682   -3.0586   47.8768 H       1  ZINC000508765459    0.1700
     53 H53       -15.2807   -1.0092   46.6014 H       1  ZINC000508765459    0.1500
     54 H54       -13.9591    0.7633   47.7344 H       1  ZINC000508765459    0.1700
     55 H55       -15.7339   -1.9912   52.1725 H       1  ZINC000508765459    0.1000
     56 H56       -14.7389   -3.4205   51.8025 H       1  ZINC000508765459    0.0500
     57 H57       -14.9798   -3.1484   54.2459 H       1  ZINC000508765459    0.0900
     58 H58       -14.3195   -1.4985   54.1372 H       1  ZINC000508765459    0.0500
     59 H59        -9.2038   -3.7388   60.5455 H       1  ZINC000508765459    0.1100
     60 H60        -8.2176   -2.5618   59.6410 H       1  ZINC000508765459    0.1100
@<TRIPOS>BOND
     1     1     2    1
     2     1    30    1
     3     1    31    1
     4     1    32    1
     5     2     3    1
     6     3     4    1
     7     3    33    1
     8     3    34    1
     9     4     5    1
    10     4    35    1
    11     4    36    1
    12     5    28   am
    13     5     6    1
    14     6     7    1
    15     6    37    1
    16     6    38    1
    17     7     8    1
    18     7    39    1
    19     7    40    1
    20     8     9   am
    21     8    27    1
    22     9    10    2
    23     9    11   am
    24    11    12    1
    25    11    41    1
    26    12    13    1
    27    12    42    1
    28    12    43    1
    29    13    14    1
    30    13    44    1
    31    13    45    1
    32    14    15    1
    33    14    46    1
    34    14    47    1
    35    15    26    1
    36    15    16    1
    37    16    17    1
    38    16    48    1
    39    16    49    1
    40    17    18    1
    41    17    50    1
    42    17    51    1
    43    18    19    1
    44    18    25    1
    45    19    24   ar
    46    19    20   ar
    47    20    21   ar
    48    21    22   ar
    49    21    52    1
    50    22    23   ar
    51    22    53    1
    52    23    24   ar
    53    23    54    1
    54    25    26    1
    55    25    55    1
    56    25    56    1
    57    26    57    1
    58    26    58    1
    59    27    28    1
    60    27    59    1
    61    27    60    1
    62    28    29    2
@<TRIPOS>SUBSTRUCTURE
     1 ZINC000508765459        1 TEMP              0 ****  ****    0 ROOT


##########                                Name:    ZINC001105194920
##########                DOCK_Rotatable_Bonds:                   8
##########                         Heavy_Atoms:                  25
##########                    Molecular_Weight:             346.392
##########                DOCK_Rotatable_Bonds:                   8
##########                       Formal_Charge:          -0.0100007
##########                     HBond_Acceptors:                  10
##########                        HBond_Donors:                   3
##########                         Heavy_Atoms:                  25
##########                          Grid_Score:          -41.015167
##########                     Grid_vdw_energy:          -38.075413
##########                      Grid_es_energy:           -2.939753
##########           Internal_energy_repulsive:           10.228078

@<TRIPOS>MOLECULE
ZINC001105194920
 47 49 1 0 0
SMALL
USER_CHARGES


@<TRIPOS>ATOM
      1 C1         -3.5767    1.7160   65.2675 C.3     1  ZINC001105194920    0.0300
      2 O2         -4.8846    1.1837   65.4869 O.3     1  ZINC001105194920   -0.3900
      3 C3         -5.7835    2.0941   66.1236 C.3     1  ZINC001105194920    0.0700
      4 C4         -7.1500    1.4271   66.2924 C.3     1  ZINC001105194920    0.0900
      5 H5         -7.0448    0.5342   66.9088 H       1  ZINC001105194920    0.0900
      6 C6         -8.1140    2.4036   66.9695 C.3     1  ZINC001105194920   -0.1800
      7 N7         -7.6785    1.0524   64.9739 N.3     1  ZINC001105194920   -0.6800
      8 C8         -8.9220    0.2815   65.1048 C.3     1  ZINC001105194920    0.1400
      9 C9         -9.4493   -0.0577   63.7344 C.2     1  ZINC001105194920   -0.0200
     10 C10       -10.3078    0.6794   62.9917 C.2     1  ZINC001105194920   -0.0200
     11 N11       -10.4988   -0.0089   61.8425 N.pl3   1  ZINC001105194920   -0.2800
     12 C12       -11.3552    0.4031   60.7275 C.3     1  ZINC001105194920    0.1000
     13 C13       -10.5744    0.8381   59.4741 C.3     1  ZINC001105194920    0.1100
     14 N14       -10.6636   -0.5730   59.0515 N.am    1  ZINC001105194920   -0.6300
     15 C15        -9.9348   -1.3636   58.2389 C.2     1  ZINC001105194920    0.6200
     16 O16        -8.9583   -0.9151   57.6702 O.2     1  ZINC001105194920   -0.5400
     17 C17       -10.3226   -2.7751   58.0391 C.ar    1  ZINC001105194920   -0.0600
     18 N18       -11.1549   -3.1067   57.0564 N.ar    1  ZINC001105194920   -0.3700
     19 C19       -11.4988   -4.3665   56.8810 C.ar    1  ZINC001105194920   -0.0200
     20 C20       -10.9967   -5.3531   57.7175 C.ar    1  ZINC001105194920    0.1500
     21 N21       -10.1697   -5.0389   58.6978 N.ar    1  ZINC001105194920   -0.5100
     22 C22        -9.8095   -3.7742   58.8826 C.ar    1  ZINC001105194920    0.4200
     23 N23        -8.9433   -3.4409   59.9076 N.pl3   1  ZINC001105194920   -0.8100
     24 C24       -11.8715   -0.7709   59.8760 C.3     1  ZINC001105194920    0.1100
     25 N25        -9.7986   -1.0875   61.8972 N.2     1  ZINC001105194920   -0.0800
     26 N26        -9.1565   -1.1437   63.0104 N.2     1  ZINC001105194920   -0.2600
     27 H27        -3.1316    1.9917   66.2236 H       1  ZINC001105194920    0.0400
     28 H28        -2.9554    0.9643   64.7807 H       1  ZINC001105194920    0.0800
     29 H29        -3.6456    2.5981   64.6309 H       1  ZINC001105194920    0.0400
     30 H30        -5.3898    2.3687   67.1022 H       1  ZINC001105194920    0.0600
     31 H31        -5.8892    2.9889   65.5103 H       1  ZINC001105194920    0.0500
     32 H32        -8.2190    3.2964   66.3531 H       1  ZINC001105194920    0.0700
     33 H33        -9.0875    1.9284   67.0898 H       1  ZINC001105194920    0.0500
     34 H34        -7.7219    2.6815   67.9478 H       1  ZINC001105194920    0.0600
     35 H35        -7.8173    1.8673   64.3952 H       1  ZINC001105194920    0.3500
     36 H36        -8.7233   -0.6379   65.6556 H       1  ZINC001105194920    0.0900
     37 H37        -9.6621    0.8744   65.6423 H       1  ZINC001105194920    0.0500
     38 H38       -10.7515    1.6262   63.2622 H       1  ZINC001105194920    0.1800
     39 H39       -12.1343    1.1043   61.0266 H       1  ZINC001105194920    0.1500
     40 H40       -11.1239    1.5251   58.8306 H       1  ZINC001105194920    0.1200
     41 H41        -9.5576    1.1706   59.6833 H       1  ZINC001105194920    0.1000
     42 H42       -12.1752   -4.6324   56.0822 H       1  ZINC001105194920    0.1800
     43 H43       -11.2841   -6.3832   57.5663 H       1  ZINC001105194920    0.1800
     44 H44        -8.5366   -4.1385   60.4450 H       1  ZINC001105194920    0.4000
     45 H45        -8.7423   -2.5094   60.0893 H       1  ZINC001105194920    0.4300
     46 H46       -11.8904   -1.7232   60.4061 H       1  ZINC001105194920    0.1100
     47 H47       -12.8021   -0.5567   59.3505 H       1  ZINC001105194920    0.1200
@<TRIPOS>BOND
     1     1     2    1
     2     1    27    1
     3     1    28    1
     4     1    29    1
     5     2     3    1
     6     3     4    1
     7     3    30    1
     8     3    31    1
     9     4     5    1
    10     4     6    1
    11     4     7    1
    12     6    32    1
    13     6    33    1
    14     6    34    1
    15     7     8    1
    16     7    35    1
    17     8     9    1
    18     8    36    1
    19     8    37    1
    20     9    26    1
    21     9    10    2
    22    10    11    1
    23    10    38    1
    24    11    12    1
    25    11    25    1
    26    12    24    1
    27    12    13    1
    28    12    39    1
    29    13    14    1
    30    13    40    1
    31    13    41    1
    32    14    15   am
    33    14    24    1
    34    15    16    2
    35    15    17    1
    36    17    22   ar
    37    17    18   ar
    38    18    19   ar
    39    19    20   ar
    40    19    42    1
    41    20    21   ar
    42    20    43    1
    43    21    22   ar
    44    22    23    1
    45    23    44    1
    46    23    45    1
    47    24    46    1
    48    24    47    1
    49    25    26    2
@<TRIPOS>SUBSTRUCTURE
     1 ZINC001105194920        1 TEMP              0 ****  ****    0 ROOT


##########                                Name:    ZINC000045927156
##########                DOCK_Rotatable_Bonds:                   7
##########                         Heavy_Atoms:                  30
##########                    Molecular_Weight:             418.522
##########                DOCK_Rotatable_Bonds:                   7
##########                       Formal_Charge:           0.0200001
##########                     HBond_Acceptors:                   8
##########                        HBond_Donors:                   1
##########                         Heavy_Atoms:                  30
##########                          Grid_Score:          -40.993427
##########                     Grid_vdw_energy:          -38.746212
##########                      Grid_es_energy:           -2.247214
##########           Internal_energy_repulsive:           15.027344

@<TRIPOS>MOLECULE
ZINC000045927156
 52 56 1 0 0
SMALL
USER_CHARGES


@<TRIPOS>ATOM
      1 O1        -10.9377   -3.6827   54.3742 O.2     1  ZINC000045927156   -0.5800
      2 C2        -11.9945   -3.1262   54.1465 C.2     1  ZINC000045927156    0.7300
      3 N3        -12.0587   -2.1591   53.2100 N.am    1  ZINC000045927156   -0.7400
      4 C4        -10.8539   -1.7742   52.4706 C.3     1  ZINC000045927156    0.1700
      5 C5        -10.8828   -0.2921   52.1997 C.ar    1  ZINC000045927156   -0.0700
      6 C6        -12.0911    0.3540   52.0190 C.ar    1  ZINC000045927156   -0.1000
      7 C7        -12.1176    1.7137   51.7705 C.ar    1  ZINC000045927156   -0.1100
      8 C8        -10.9357    2.4271   51.7031 C.ar    1  ZINC000045927156   -0.1100
      9 C9         -9.7270    1.7810   51.8848 C.ar    1  ZINC000045927156   -0.1000
     10 C10        -9.7007    0.4225   52.1375 C.ar    1  ZINC000045927156   -0.1000
     11 C11        -8.3832   -0.2818   52.3356 C.3     1  ZINC000045927156    0.1700
     12 N12        -7.3382    0.4167   51.5832 N.pl3   1  ZINC000045927156   -0.3800
     13 C13        -6.5569    1.4164   52.0276 C.2     1  ZINC000045927156    0.2500
     14 N14        -5.7533    1.7661   51.0562 N.2     1  ZINC000045927156   -0.5400
     15 C15        -5.9906    1.0158   49.9810 C.2     1  ZINC000045927156    0.2000
     16 N16        -6.9492    0.1709   50.2562 N.2     1  ZINC000045927156   -0.3100
     17 N17       -13.1028   -3.4803   54.8266 N.am    1  ZINC000045927156   -0.6200
     18 C18       -14.4440   -2.8944   54.6488 C.3     1  ZINC000045927156    0.1000
     19 C19       -15.4234   -3.9891   55.1408 C.3     1  ZINC000045927156   -0.1300
     20 C20       -14.6425   -4.5897   56.3395 C.3     1  ZINC000045927156   -0.1200
     21 C21       -13.1762   -4.5192   55.8644 C.3     1  ZINC000045927156    0.2300
     22 H22       -12.8728   -5.4822   55.4537 H       1  ZINC000045927156    0.1000
     23 C23       -12.2805   -4.1494   57.0186 C.2     1  ZINC000045927156    0.0900
     24 N24       -12.3787   -3.0626   57.6861 N.2     1  ZINC000045927156   -0.4500
     25 C25       -11.5091   -2.8633   58.6950 C.ar    1  ZINC000045927156    0.0800
     26 C26       -11.3920   -1.7730   59.5801 C.ar    1  ZINC000045927156   -0.0700
     27 C27       -10.4298   -1.7675   60.5443 C.ar    1  ZINC000045927156   -0.1100
     28 C28        -9.5490   -2.8318   60.6745 C.ar    1  ZINC000045927156   -0.1000
     29 C29        -9.6400   -3.9106   59.8237 C.ar    1  ZINC000045927156   -0.0700
     30 C30       -10.6177   -3.9335   58.8317 C.ar    1  ZINC000045927156   -0.1800
     31 S31       -11.0133   -5.1314   57.6033 S.3     1  ZINC000045927156    0.1200
     32 H32       -12.9027   -1.7179   53.0255 H       1  ZINC000045927156    0.3900
     33 H33        -9.9713   -2.0185   53.0618 H       1  ZINC000045927156    0.1000
     34 H34       -10.8192   -2.3158   51.5253 H       1  ZINC000045927156    0.0700
     35 H35       -13.0147   -0.2034   52.0716 H       1  ZINC000045927156    0.1300
     36 H36       -13.0618    2.2185   51.6286 H       1  ZINC000045927156    0.1300
     37 H37       -10.9564    3.4892   51.5083 H       1  ZINC000045927156    0.1300
     38 H38        -8.8035    2.3383   51.8319 H       1  ZINC000045927156    0.1300
     39 H39        -8.1281   -0.2839   53.3953 H       1  ZINC000045927156    0.1100
     40 H40        -8.4629   -1.3087   51.9790 H       1  ZINC000045927156    0.1000
     41 H41        -6.5877    1.8547   53.0141 H       1  ZINC000045927156    0.2200
     42 H42        -5.4719    1.0906   49.0366 H       1  ZINC000045927156    0.2200
     43 H43       -14.5474   -1.9933   55.2532 H       1  ZINC000045927156    0.0700
     44 H44       -14.6234   -2.6697   53.5974 H       1  ZINC000045927156    0.0800
     45 H45       -16.3661   -3.5512   55.4686 H       1  ZINC000045927156    0.0900
     46 H46       -15.5907   -4.7395   54.3682 H       1  ZINC000045927156    0.0800
     47 H47       -14.7905   -3.9882   57.2364 H       1  ZINC000045927156    0.0900
     48 H48       -14.9397   -5.6237   56.5141 H       1  ZINC000045927156    0.0900
     49 H49       -12.0691   -0.9361   59.4932 H       1  ZINC000045927156    0.1300
     50 H50       -10.3513   -0.9248   61.2152 H       1  ZINC000045927156    0.1400
     51 H51        -8.7911   -2.8137   61.4436 H       1  ZINC000045927156    0.1400
     52 H52        -8.9536   -4.7382   59.9252 H       1  ZINC000045927156    0.1300
@<TRIPOS>BOND
     1     1     2    2
     2     2     3   am
     3     2    17   am
     4     3     4    1
     5     3    32    1
     6     4     5    1
     7     4    33    1
     8     4    34    1
     9     5    10   ar
    10     5     6   ar
    11     6     7   ar
    12     6    35    1
    13     7     8   ar
    14     7    36    1
    15     8     9   ar
    16     8    37    1
    17     9    10   ar
    18     9    38    1
    19    10    11    1
    20    11    12    1
    21    11    39    1
    22    11    40    1
    23    12    16    1
    24    12    13    1
    25    13    14    2
    26    13    41    1
    27    14    15    1
    28    15    16    2
    29    15    42    1
    30    17    21    1
    31    17    18    1
    32    18    19    1
    33    18    43    1
    34    18    44    1
    35    19    20    1
    36    19    45    1
    37    19    46    1
    38    20    21    1
    39    20    47    1
    40    20    48    1
    41    21    22    1
    42    21    23    1
    43    23    31    1
    44    23    24    2
    45    24    25    1
    46    25    30   ar
    47    25    26   ar
    48    26    27   ar
    49    26    49    1
    50    27    28   ar
    51    27    50    1
    52    28    29   ar
    53    28    51    1
    54    29    30   ar
    55    29    52    1
    56    30    31    1
@<TRIPOS>SUBSTRUCTURE
     1 ZINC000045927156        1 TEMP              0 ****  ****    0 ROOT


##########                                Name:    ZINC000506566356
##########                DOCK_Rotatable_Bonds:                  10
##########                         Heavy_Atoms:                  28
##########                    Molecular_Weight:               415.9
##########                DOCK_Rotatable_Bonds:                  10
##########                       Formal_Charge:           0.0199998
##########                     HBond_Acceptors:                   8
##########                        HBond_Donors:                   2
##########                         Heavy_Atoms:                  28
##########                          Grid_Score:          -40.907787
##########                     Grid_vdw_energy:          -39.692905
##########                      Grid_es_energy:           -1.214881
##########           Internal_energy_repulsive:            5.568879

@<TRIPOS>MOLECULE
ZINC000506566356
 46 48 1 0 0
SMALL
USER_CHARGES


@<TRIPOS>ATOM
      1 O1         -8.6414   -1.9969   51.2847 O.2     1  ZINC000506566356   -0.5100
      2 C2         -9.2239   -1.1952   51.9854 C.2     1  ZINC000506566356    0.5100
      3 N3         -8.6501   -0.0102   52.2737 N.am    1  ZINC000506566356   -0.7000
      4 C4         -7.3209    0.3077   51.7462 C.3     1  ZINC000506566356    0.1200
      5 C5         -7.0259    1.7925   51.9681 C.3     1  ZINC000506566356   -0.0900
      6 C6         -5.5986    2.0842   51.5823 C.ar    1  ZINC000506566356   -0.0700
      7 C7         -4.7469    2.6859   52.4895 C.ar    1  ZINC000506566356   -0.1100
      8 C8         -3.4371    2.9534   52.1365 C.ar    1  ZINC000506566356   -0.1000
      9 C9         -2.9789    2.6198   50.8761 C.ar    1  ZINC000506566356   -0.1100
     10 C10        -3.8312    2.0175   49.9675 C.ar    1  ZINC000506566356   -0.0300
     11 Cl11       -3.2562    1.5976   48.3842 Cl      1  ZINC000506566356   -0.0700
     12 C12        -5.1398    1.7449   50.3232 C.ar    1  ZINC000506566356   -0.1000
     13 C13       -10.5789   -1.5192   52.5231 C.2     1  ZINC000506566356    0.5100
     14 O14       -11.4720   -0.7004   52.4513 O.2     1  ZINC000506566356   -0.5000
     15 N15       -10.8100   -2.7209   53.0880 N.am    1  ZINC000506566356   -0.6300
     16 C16       -12.0792   -3.0244   53.5916 C.ar    1  ZINC000506566356    0.1100
     17 C17       -13.1745   -3.0630   52.7407 C.ar    1  ZINC000506566356   -0.0800
     18 C18       -14.4274   -3.3631   53.2409 C.ar    1  ZINC000506566356   -0.1400
     19 C19       -14.5932   -3.6253   54.5882 C.ar    1  ZINC000506566356   -0.0900
     20 C20       -13.5067   -3.5883   55.4428 C.ar    1  ZINC000506566356   -0.1900
     21 C21       -12.2464   -3.2945   54.9491 C.ar    1  ZINC000506566356    0.1200
     22 O22       -11.1772   -3.2577   55.7880 O.3     1  ZINC000506566356   -0.3100
     23 C23       -11.1435   -2.2015   56.7501 C.3     1  ZINC000506566356    0.1400
     24 C24       -10.5482   -2.7128   58.0367 C.2     1  ZINC000506566356    0.0500
     25 C25       -10.2044   -1.9060   59.0449 C.2     1  ZINC000506566356   -0.2300
     26 S26        -9.5549   -2.9058   60.3423 S.3     1  ZINC000506566356    0.1400
     27 C27        -9.8104   -4.3094   59.3999 C.2     1  ZINC000506566356    0.0200
     28 N28       -10.3293   -3.9926   58.2618 N.2     1  ZINC000506566356   -0.4700
     29 H29        -9.1173    0.6322   52.8305 H       1  ZINC000506566356    0.4200
     30 H30        -6.5719   -0.2926   52.2626 H       1  ZINC000506566356    0.0800
     31 H31        -7.2911    0.0869   50.6793 H       1  ZINC000506566356    0.0800
     32 H32        -7.6980    2.3922   51.3542 H       1  ZINC000506566356    0.0900
     33 H33        -7.1760    2.0397   53.0190 H       1  ZINC000506566356    0.0900
     34 H34        -5.1047    2.9474   53.4744 H       1  ZINC000506566356    0.1300
     35 H35        -2.7721    3.4235   52.8458 H       1  ZINC000506566356    0.1300
     36 H36        -1.9561    2.8295   50.6003 H       1  ZINC000506566356    0.1300
     37 H37        -5.8055    1.2747   49.6144 H       1  ZINC000506566356    0.1300
     38 H38       -10.0962   -3.3753   53.1452 H       1  ZINC000506566356    0.4300
     39 H39       -13.0480   -2.8584   51.6878 H       1  ZINC000506566356    0.1500
     40 H40       -15.2793   -3.3926   52.5777 H       1  ZINC000506566356    0.1300
     41 H41       -15.5743   -3.8594   54.9744 H       1  ZINC000506566356    0.1300
     42 H42       -13.6401   -3.7929   56.4949 H       1  ZINC000506566356    0.1400
     43 H43       -10.5347   -1.3818   56.3685 H       1  ZINC000506566356    0.0900
     44 H44       -12.1571   -1.8459   56.9348 H       1  ZINC000506566356    0.0900
     45 H45       -10.3066   -0.8310   59.0617 H       1  ZINC000506566356    0.1800
     46 H46        -9.5757   -5.3158   59.7137 H       1  ZINC000506566356    0.2100
@<TRIPOS>BOND
     1     1     2    2
     2     2     3   am
     3     2    13    1
     4     3     4    1
     5     3    29    1
     6     4     5    1
     7     4    30    1
     8     4    31    1
     9     5     6    1
    10     5    32    1
    11     5    33    1
    12     6    12   ar
    13     6     7   ar
    14     7     8   ar
    15     7    34    1
    16     8     9   ar
    17     8    35    1
    18     9    10   ar
    19     9    36    1
    20    10    11    1
    21    10    12   ar
    22    12    37    1
    23    13    14    2
    24    13    15   am
    25    15    16    1
    26    15    38    1
    27    16    21   ar
    28    16    17   ar
    29    17    18   ar
    30    17    39    1
    31    18    19   ar
    32    18    40    1
    33    19    20   ar
    34    19    41    1
    35    20    21   ar
    36    20    42    1
    37    21    22    1
    38    22    23    1
    39    23    24    1
    40    23    43    1
    41    23    44    1
    42    24    28    1
    43    24    25    2
    44    25    26    1
    45    25    45    1
    46    26    27    1
    47    27    28    2
    48    27    46    1
@<TRIPOS>SUBSTRUCTURE
     1 ZINC000506566356        1 TEMP              0 ****  ****    0 ROOT


##########                                Name:    ZINC000058174787
##########                DOCK_Rotatable_Bonds:                   9
##########                         Heavy_Atoms:                  27
##########                    Molecular_Weight:             413.882
##########                DOCK_Rotatable_Bonds:                   9
##########                       Formal_Charge:           0.0200002
##########                     HBond_Acceptors:                  10
##########                        HBond_Donors:                   1
##########                         Heavy_Atoms:                  27
##########                          Grid_Score:          -40.608952
##########                     Grid_vdw_energy:          -39.845531
##########                      Grid_es_energy:           -0.763420
##########           Internal_energy_repulsive:            5.050922

@<TRIPOS>MOLECULE
ZINC000058174787
 47 48 1 0 0
SMALL
USER_CHARGES


@<TRIPOS>ATOM
      1 C1        -10.8774   -0.1073   54.5883 C.3     1  ZINC000058174787   -0.0700
      2 C2         -9.6972    0.4708   53.8507 C.2     1  ZINC000058174787    0.2100
      3 N3         -9.2481    0.0626   52.6954 N.2     1  ZINC000058174787   -0.4200
      4 C4         -8.1883    0.8064   52.3450 C.2     1  ZINC000058174787   -0.5600
      5 S5         -7.2440    0.6321   50.8676 S.o2    1  ZINC000058174787    2.7400
      6 O6         -7.2196   -0.7569   50.5686 O.2     1  ZINC000058174787   -0.9500
      7 O7         -7.7302    1.6136   49.9625 O.2     1  ZINC000058174787   -0.9600
      8 N8         -5.6854    1.0600   51.2288 N.am    1  ZINC000058174787   -1.1100
      9 C9         -4.6542    1.0163   50.1892 C.3     1  ZINC000058174787    0.1300
     10 C10        -3.6023    2.0916   50.4688 C.3     1  ZINC000058174787   -0.1200
     11 C11        -2.6981    2.2331   49.2717 C.2     1  ZINC000058174787    0.4700
     12 O12        -2.1292    3.2787   49.0645 O.2     1  ZINC000058174787   -0.5000
     13 O13        -2.5245    1.1975   48.4355 O.3     1  ZINC000058174787   -0.3300
     14 C14        -2.0801    1.5056   47.0879 C.3     1  ZINC000058174787    0.0400
     15 H15        -1.2708    2.2346   47.1300 H       1  ZINC000058174787    0.1200
     16 C16        -3.2471    2.0848   46.2859 C.3     1  ZINC000058174787   -0.1700
     17 C17        -1.5879    0.2469   46.4212 C.2     1  ZINC000058174787    0.4000
     18 O18        -1.6642   -0.8157   47.0005 O.2     1  ZINC000058174787   -0.4200
     19 C19        -1.0152    0.3072   45.0677 C.ar    1  ZINC000058174787   -0.1600
     20 C20         0.2036    0.9581   44.8487 C.ar    1  ZINC000058174787   -0.0600
     21 C21         0.7344    1.0103   43.5779 C.ar    1  ZINC000058174787   -0.1200
     22 C22         0.0640    0.4199   42.5186 C.ar    1  ZINC000058174787    0.0000
     23 Cl23        0.7405    0.4900   40.9214 Cl      1  ZINC000058174787   -0.0500
     24 C24        -1.1436   -0.2265   42.7282 C.ar    1  ZINC000058174787   -0.1200
     25 C25        -1.6839   -0.2912   43.9943 C.ar    1  ZINC000058174787   -0.0400
     26 C26        -7.9725    1.7096   53.3202 C.2     1  ZINC000058174787    0.0700
     27 N27        -8.9326    1.5007   54.2732 N.pl3   1  ZINC000058174787   -0.4500
     28 C28        -9.0952    2.2489   55.5221 C.3     1  ZINC000058174787    0.0600
     29 H29       -11.7858    0.4135   54.2854 H       1  ZINC000058174787    0.0900
     30 H30       -10.9703   -1.1672   54.3514 H       1  ZINC000058174787    0.1000
     31 H31       -10.7299    0.0136   55.6615 H       1  ZINC000058174787    0.0800
     32 H32        -5.4555    1.3396   52.1286 H       1  ZINC000058174787    0.4200
     33 H33        -4.1796    0.0351   50.1891 H       1  ZINC000058174787    0.0900
     34 H34        -5.1109    1.1992   49.2164 H       1  ZINC000058174787    0.0900
     35 H35        -4.0978    3.0425   50.6644 H       1  ZINC000058174787    0.1200
     36 H36        -3.0113    1.8042   51.3385 H       1  ZINC000058174787    0.1200
     37 H37        -4.0563    1.3557   46.2438 H       1  ZINC000058174787    0.0800
     38 H38        -3.6030    2.9953   46.7681 H       1  ZINC000058174787    0.0800
     39 H39        -2.9135    2.3161   45.2743 H       1  ZINC000058174787    0.0800
     40 H40         0.7269    1.4191   45.6733 H       1  ZINC000058174787    0.1400
     41 H41         1.6750    1.5128   43.4072 H       1  ZINC000058174787    0.1400
     42 H42        -1.6607   -0.6845   41.8979 H       1  ZINC000058174787    0.1400
     43 H43        -2.6249   -0.7956   44.1563 H       1  ZINC000058174787    0.1500
     44 H44        -7.1940    2.4578   53.3439 H       1  ZINC000058174787    0.1900
     45 H45        -9.7553    3.0996   55.3527 H       1  ZINC000058174787    0.0900
     46 H46        -9.5286    1.5983   56.2816 H       1  ZINC000058174787    0.1000
     47 H47        -8.1227    2.6056   55.8612 H       1  ZINC000058174787    0.0900
@<TRIPOS>BOND
     1     1     2    1
     2     1    29    1
     3     1    30    1
     4     1    31    1
     5     2    27    1
     6     2     3    2
     7     3     4    1
     8     4     5    1
     9     4    26    2
    10     5     6    2
    11     5     7    2
    12     5     8   am
    13     8     9    1
    14     8    32    1
    15     9    10    1
    16     9    33    1
    17     9    34    1
    18    10    11    1
    19    10    35    1
    20    10    36    1
    21    11    12    2
    22    11    13    1
    23    13    14    1
    24    14    15    1
    25    14    16    1
    26    14    17    1
    27    16    37    1
    28    16    38    1
    29    16    39    1
    30    17    18    2
    31    17    19    1
    32    19    25   ar
    33    19    20   ar
    34    20    21   ar
    35    20    40    1
    36    21    22   ar
    37    21    41    1
    38    22    23    1
    39    22    24   ar
    40    24    25   ar
    41    24    42    1
    42    25    43    1
    43    26    27    1
    44    26    44    1
    45    27    28    1
    46    28    45    1
    47    28    46    1
    48    28    47    1
@<TRIPOS>SUBSTRUCTURE
     1 ZINC000058174787        1 TEMP              0 ****  ****    0 ROOT


##########                                Name:    ZINC000033150761
##########                DOCK_Rotatable_Bonds:                   7
##########                         Heavy_Atoms:                  29
##########                    Molecular_Weight:             413.407
##########                DOCK_Rotatable_Bonds:                   7
##########                       Formal_Charge:          0.00999993
##########                     HBond_Acceptors:                  10
##########                        HBond_Donors:                   1
##########                         Heavy_Atoms:                  29
##########                          Grid_Score:          -40.430237
##########                     Grid_vdw_energy:          -39.600864
##########                      Grid_es_energy:           -0.829374
##########           Internal_energy_repulsive:            4.907557

@<TRIPOS>MOLECULE
ZINC000033150761
 42 45 1 0 0
SMALL
USER_CHARGES


@<TRIPOS>ATOM
      1 O1        -13.7396   -4.7136   57.6010 O.2     1  ZINC000033150761   -0.5000
      2 C2        -13.0608   -4.4548   56.6298 C.2     1  ZINC000033150761    0.5200
      3 C3        -13.6104   -4.6798   55.2447 C.3     1  ZINC000033150761   -0.1300
      4 C4        -13.6888   -3.3435   54.5037 C.3     1  ZINC000033150761   -0.0100
      5 C5        -12.4249   -3.1344   53.7100 C.2     1  ZINC000033150761    0.1800
      6 N6        -11.7424   -2.0208   53.6131 N.2     1  ZINC000033150761   -0.4400
      7 C7        -10.6966   -2.3050   52.8048 C.2     1  ZINC000033150761    0.2200
      8 C8         -9.6259   -1.3656   52.3855 C.ar    1  ZINC000033150761    0.1900
      9 C9         -9.5946   -0.0764   52.9098 C.ar    1  ZINC000033150761   -0.1300
     10 C10        -8.5898    0.7888   52.5096 C.ar    1  ZINC000033150761   -0.0700
     11 C11        -7.6495    0.3340   51.5972 C.ar    1  ZINC000033150761   -0.1500
     12 C12        -7.7412   -0.9603   51.1169 C.ar    1  ZINC000033150761    0.1100
     13 N13        -8.7041   -1.7638   51.5188 N.ar    1  ZINC000033150761   -0.4500
     14 N14       -10.8042   -3.5618   52.4616 N.2     1  ZINC000033150761   -0.3600
     15 O15       -11.7865   -4.0521   52.9772 O.3     1  ZINC000033150761    0.0900
     16 N16       -11.8171   -3.9606   56.7890 N.am    1  ZINC000033150761   -0.6200
     17 C17       -11.3103   -3.7530   58.0661 C.2     1  ZINC000033150761    0.2700
     18 N18       -11.6876   -2.8159   58.8789 N.2     1  ZINC000033150761   -0.5000
     19 C19       -11.0916   -2.7693   60.0621 C.2     1  ZINC000033150761    0.1200
     20 C20       -11.4323   -1.7472   61.0817 C.ar    1  ZINC000033150761    0.0000
     21 C21       -10.4451   -0.8965   61.5752 C.ar    1  ZINC000033150761   -0.0800
     22 C22       -10.7656    0.0538   62.5237 C.ar    1  ZINC000033150761   -0.1200
     23 C23       -12.0661    0.1635   62.9857 C.ar    1  ZINC000033150761    0.0700
     24 F24       -12.3750    1.0951   63.9140 F       1  ZINC000033150761   -0.1300
     25 C25       -13.0535   -0.6808   62.4974 C.ar    1  ZINC000033150761    0.0700
     26 F26       -14.3213   -0.5697   62.9509 F       1  ZINC000033150761   -0.1300
     27 C27       -12.7421   -1.6313   61.5445 C.ar    1  ZINC000033150761   -0.1000
     28 C28       -10.1569   -3.7128   60.2743 C.2     1  ZINC000033150761   -0.2800
     29 S29       -10.0607   -4.7263   58.8359 S.3     1  ZINC000033150761    0.2200
     30 H30       -12.9552   -5.3596   54.6998 H       1  ZINC000033150761    0.1200
     31 H31       -14.6073   -5.1149   55.3156 H       1  ZINC000033150761    0.1200
     32 H32       -14.5446   -3.3520   53.8287 H       1  ZINC000033150761    0.1300
     33 H33       -13.8031   -2.5343   55.2250 H       1  ZINC000033150761    0.1200
     34 H34       -10.3435    0.2447   53.6186 H       1  ZINC000033150761    0.1400
     35 H35        -8.5399    1.7950   52.8988 H       1  ZINC000033150761    0.1500
     36 H36        -6.8536    0.9839   51.2645 H       1  ZINC000033150761    0.1400
     37 H37        -7.0109   -1.3180   50.4064 H       1  ZINC000033150761    0.1700
     38 H38       -11.2757   -3.7499   56.0122 H       1  ZINC000033150761    0.4300
     39 H39        -9.4301   -0.9810   61.2163 H       1  ZINC000033150761    0.1400
     40 H40       -10.0003    0.7128   62.9064 H       1  ZINC000033150761    0.1500
     41 H41       -13.5104   -2.2883   61.1644 H       1  ZINC000033150761    0.1600
     42 H42        -9.5699   -3.8316   61.1730 H       1  ZINC000033150761    0.1800
@<TRIPOS>BOND
     1     1     2    2
     2     2     3    1
     3     2    16   am
     4     3     4    1
     5     3    30    1
     6     3    31    1
     7     4     5    1
     8     4    32    1
     9     4    33    1
    10     5    15    1
    11     5     6    2
    12     6     7    1
    13     7     8    1
    14     7    14    2
    15     8    13   ar
    16     8     9   ar
    17     9    10   ar
    18     9    34    1
    19    10    11   ar
    20    10    35    1
    21    11    12   ar
    22    11    36    1
    23    12    13   ar
    24    12    37    1
    25    14    15    1
    26    16    17    1
    27    16    38    1
    28    17    29    1
    29    17    18    2
    30    18    19    1
    31    19    20    1
    32    19    28    2
    33    20    27   ar
    34    20    21   ar
    35    21    22   ar
    36    21    39    1
    37    22    23   ar
    38    22    40    1
    39    23    24    1
    40    23    25   ar
    41    25    26    1
    42    25    27   ar
    43    27    41    1
    44    28    29    1
    45    28    42    1
@<TRIPOS>SUBSTRUCTURE
     1 ZINC000033150761        1 TEMP              0 ****  ****    0 ROOT


##########                                Name:    ZINC000816269301
##########                DOCK_Rotatable_Bonds:                   7
##########                         Heavy_Atoms:                  25
##########                    Molecular_Weight:             358.784
##########                DOCK_Rotatable_Bonds:                   7
##########                       Formal_Charge:           0.0100002
##########                     HBond_Acceptors:                   8
##########                        HBond_Donors:                   1
##########                         Heavy_Atoms:                  25
##########                          Grid_Score:          -40.408333
##########                     Grid_vdw_energy:          -40.950397
##########                      Grid_es_energy:            0.542064
##########           Internal_energy_repulsive:            5.888384

@<TRIPOS>MOLECULE
ZINC000816269301
 40 42 1 0 0
SMALL
USER_CHARGES


@<TRIPOS>ATOM
      1 C1        -10.0359   -1.3791   60.9327 C.3     1  ZINC000816269301    0.1000
      2 N2         -9.9893   -2.6347   60.1793 N.pl3   1  ZINC000816269301   -0.4000
      3 N3         -9.0220   -3.6435   60.2925 N.2     1  ZINC000816269301    0.0000
      4 N4         -9.2998   -4.5989   59.4772 N.2     1  ZINC000816269301   -0.2000
      5 C5        -10.4286   -4.3092   58.7871 C.ar    1  ZINC000816269301   -0.0300
      6 C6        -11.1465   -4.9930   57.8024 C.ar    1  ZINC000816269301    0.0500
      7 C7        -12.2973   -4.4221   57.2721 C.ar    1  ZINC000816269301   -0.1400
      8 C8        -13.0612   -5.1384   56.2321 C.2     1  ZINC000816269301    0.5200
      9 O9        -13.6423   -6.1693   56.5069 O.2     1  ZINC000816269301   -0.5000
     10 O10       -13.1142   -4.6491   54.9780 O.3     1  ZINC000816269301   -0.3500
     11 C11       -11.9860   -3.8503   54.5337 C.3     1  ZINC000816269301    0.0500
     12 C12       -12.1159   -3.5735   53.0346 C.3     1  ZINC000816269301    0.1200
     13 N13       -10.9312   -2.8495   52.5673 N.am    1  ZINC000816269301   -0.7200
     14 C14       -10.8401   -1.5171   52.7495 C.2     1  ZINC000816269301    0.5600
     15 O15       -11.7405   -0.9165   53.3030 O.2     1  ZINC000816269301   -0.5300
     16 C16        -9.6458   -0.7867   52.2764 C.ar    1  ZINC000816269301   -0.1300
     17 C17        -9.5409    0.5907   52.4788 C.ar    1  ZINC000816269301   -0.0700
     18 C18        -8.4241    1.2670   52.0350 C.ar    1  ZINC000816269301   -0.1200
     19 C19        -7.4074    0.5823   51.3897 C.ar    1  ZINC000816269301   -0.0100
     20 Cl20       -6.0041    1.4403   50.8344 Cl      1  ZINC000816269301   -0.0600
     21 C21        -7.5058   -0.7842   51.1861 C.ar    1  ZINC000816269301   -0.1200
     22 C22        -8.6152   -1.4722   51.6304 C.ar    1  ZINC000816269301   -0.0500
     23 C23       -12.7359   -3.1679   57.7217 C.ar    1  ZINC000816269301   -0.0200
     24 C24       -12.0398   -2.4963   58.6818 C.ar    1  ZINC000816269301   -0.1300
     25 C25       -10.8874   -3.0544   59.2300 C.ar    1  ZINC000816269301    0.1100
     26 H26       -10.6053   -1.5269   61.8504 H       1  ZINC000816269301    0.0900
     27 H27        -9.0216   -1.0664   61.1809 H       1  ZINC000816269301    0.1000
     28 H28       -10.5154   -0.6098   60.3274 H       1  ZINC000816269301    0.1000
     29 H29       -10.8092   -5.9587   57.4555 H       1  ZINC000816269301    0.1600
     30 H30       -11.9727   -2.9059   55.0778 H       1  ZINC000816269301    0.0800
     31 H31       -11.0597   -4.3924   54.7241 H       1  ZINC000816269301    0.1000
     32 H32       -12.2003   -4.5177   52.4967 H       1  ZINC000816269301    0.1000
     33 H33       -13.0055   -2.9707   52.8522 H       1  ZINC000816269301    0.0900
     34 H34       -10.2122   -3.3290   52.1267 H       1  ZINC000816269301    0.4000
     35 H35       -10.3331    1.1257   52.9814 H       1  ZINC000816269301    0.1400
     36 H36        -8.3419    2.3326   52.1907 H       1  ZINC000816269301    0.1400
     37 H37        -6.7100   -1.3127   50.6823 H       1  ZINC000816269301    0.1400
     38 H38        -8.6907   -2.5377   51.4714 H       1  ZINC000816269301    0.1500
     39 H39       -13.6310   -2.7313   57.3039 H       1  ZINC000816269301    0.1500
     40 H40       -12.3852   -1.5311   59.0217 H       1  ZINC000816269301    0.1400
@<TRIPOS>BOND
     1     1     2    1
     2     1    26    1
     3     1    27    1
     4     1    28    1
     5     2    25    1
     6     2     3    1
     7     3     4    2
     8     4     5    1
     9     5    25   ar
    10     5     6   ar
    11     6     7   ar
    12     6    29    1
    13     7     8    1
    14     7    23   ar
    15     8     9    2
    16     8    10    1
    17    10    11    1
    18    11    12    1
    19    11    30    1
    20    11    31    1
    21    12    13    1
    22    12    32    1
    23    12    33    1
    24    13    14   am
    25    13    34    1
    26    14    15    2
    27    14    16    1
    28    16    22   ar
    29    16    17   ar
    30    17    18   ar
    31    17    35    1
    32    18    19   ar
    33    18    36    1
    34    19    20    1
    35    19    21   ar
    36    21    22   ar
    37    21    37    1
    38    22    38    1
    39    23    24   ar
    40    23    39    1
    41    24    25   ar
    42    24    40    1
@<TRIPOS>SUBSTRUCTURE
     1 ZINC000816269301        1 TEMP              0 ****  ****    0 ROOT


##########                                Name:    ZINC000002634904
##########                DOCK_Rotatable_Bonds:                   7
##########                         Heavy_Atoms:                  31
##########                    Molecular_Weight:             423.498
##########                DOCK_Rotatable_Bonds:                   7
##########                       Formal_Charge:        -7.45058e-08
##########                     HBond_Acceptors:                   7
##########                        HBond_Donors:                   1
##########                         Heavy_Atoms:                  31
##########                          Grid_Score:          -40.258892
##########                     Grid_vdw_energy:          -39.564072
##########                      Grid_es_energy:           -0.694821
##########           Internal_energy_repulsive:           10.463169

@<TRIPOS>MOLECULE
ZINC000002634904
 48 51 1 0 0
SMALL
USER_CHARGES


@<TRIPOS>ATOM
      1 N1         -5.2059    1.4086   49.5861 N.1     1  ZINC000002634904   -0.4100
      2 C2         -6.0775    0.9988   50.1883 C.1     1  ZINC000002634904    0.2500
      3 C3         -7.1764    0.4821   50.9475 C.ar    1  ZINC000002634904   -0.0400
      4 C4         -8.0162    1.3537   51.6466 C.ar    1  ZINC000002634904   -0.0500
      5 C5         -9.0717    0.8534   52.3756 C.ar    1  ZINC000002634904   -0.1400
      6 C6         -9.3028   -0.5177   52.4168 C.ar    1  ZINC000002634904    0.1700
      7 N7        -10.3736   -1.0211   53.1566 N.am    1  ZINC000002634904   -0.6700
      8 C8        -11.2436   -1.8775   52.5856 C.2     1  ZINC000002634904    0.5400
      9 O9        -11.0961   -2.2105   51.4288 O.2     1  ZINC000002634904   -0.5000
     10 C10       -12.4000   -2.4211   53.3846 C.3     1  ZINC000002634904   -0.1700
     11 S11       -11.8908   -3.9408   54.2256 S.3     1  ZINC000002634904    0.1300
     12 C12       -11.6461   -3.3207   55.8566 C.ar    1  ZINC000002634904    0.2100
     13 N13       -11.8205   -4.1289   56.8962 N.ar    1  ZINC000002634904   -0.2900
     14 N14       -11.6529   -3.7197   58.1047 N.ar    1  ZINC000002634904   -0.1600
     15 C15       -11.2968   -2.4626   58.3467 C.ar    1  ZINC000002634904    0.0600
     16 C16       -11.1029   -1.9897   59.7374 C.ar    1  ZINC000002634904   -0.0500
     17 C17       -12.1514   -1.3735   60.4198 C.ar    1  ZINC000002634904   -0.0800
     18 C18       -11.9648   -0.9351   61.7148 C.ar    1  ZINC000002634904   -0.1200
     19 C19       -10.7406   -1.1055   62.3360 C.ar    1  ZINC000002634904   -0.1000
     20 C20        -9.6968   -1.7159   61.6642 C.ar    1  ZINC000002634904   -0.1200
     21 C21        -9.8731   -2.1641   60.3710 C.ar    1  ZINC000002634904   -0.0800
     22 C22       -11.1059   -1.5863   57.2594 C.ar    1  ZINC000002634904    0.2300
     23 C23       -10.7088   -0.1766   57.4834 C.ar    1  ZINC000002634904   -0.0700
     24 C24       -11.6245    0.7334   58.0107 C.ar    1  ZINC000002634904   -0.0700
     25 C25       -11.2486    2.0448   58.2175 C.ar    1  ZINC000002634904   -0.1200
     26 C26        -9.9663    2.4576   57.9029 C.ar    1  ZINC000002634904   -0.0900
     27 C27        -9.0536    1.5597   57.3790 C.ar    1  ZINC000002634904   -0.1200
     28 C28        -9.4160    0.2442   57.1731 C.ar    1  ZINC000002634904   -0.0700
     29 N29       -11.2853   -2.0550   56.0267 N.ar    1  ZINC000002634904   -0.4400
     30 C30        -8.4693   -1.3881   51.7220 C.ar    1  ZINC000002634904   -0.1200
     31 C31        -7.4150   -0.8946   50.9866 C.ar    1  ZINC000002634904   -0.0500
     32 H32        -7.8371    2.4183   51.6153 H       1  ZINC000002634904    0.1400
     33 H33        -9.7208    1.5262   52.9163 H       1  ZINC000002634904    0.1400
     34 H34       -10.4915   -0.7549   54.0818 H       1  ZINC000002634904    0.4200
     35 H35       -12.7096   -1.6827   54.1243 H       1  ZINC000002634904    0.1300
     36 H36       -13.2335   -2.6374   52.7164 H       1  ZINC000002634904    0.1300
     37 H37       -13.1074   -1.2394   59.9356 H       1  ZINC000002634904    0.1300
     38 H38       -12.7761   -0.4579   62.2443 H       1  ZINC000002634904    0.1300
     39 H39       -10.5991   -0.7601   63.3495 H       1  ZINC000002634904    0.1300
     40 H40        -8.7432   -1.8462   62.1543 H       1  ZINC000002634904    0.1300
     41 H41        -9.0575   -2.6409   59.8476 H       1  ZINC000002634904    0.1200
     42 H42       -12.6260    0.4123   58.2564 H       1  ZINC000002634904    0.1300
     43 H43       -11.9571    2.7505   58.6255 H       1  ZINC000002634904    0.1300
     44 H44        -9.6767    3.4851   58.0665 H       1  ZINC000002634904    0.1300
     45 H45        -8.0540    1.8878   57.1350 H       1  ZINC000002634904    0.1300
     46 H46        -8.7026   -0.4559   56.7641 H       1  ZINC000002634904    0.1300
     47 H47        -8.6520   -2.4520   51.7560 H       1  ZINC000002634904    0.1500
     48 H48        -6.7686   -1.5709   50.4471 H       1  ZINC000002634904    0.1400
@<TRIPOS>BOND
     1     1     2    3
     2     2     3    1
     3     3    31   ar
     4     3     4   ar
     5     4     5   ar
     6     4    32    1
     7     5     6   ar
     8     5    33    1
     9     6     7    1
    10     6    30   ar
    11     7     8   am
    12     7    34    1
    13     8     9    2
    14     8    10    1
    15    10    11    1
    16    10    35    1
    17    10    36    1
    18    11    12    1
    19    12    29   ar
    20    12    13   ar
    21    13    14   ar
    22    14    15   ar
    23    15    16    1
    24    15    22   ar
    25    16    21   ar
    26    16    17   ar
    27    17    18   ar
    28    17    37    1
    29    18    19   ar
    30    18    38    1
    31    19    20   ar
    32    19    39    1
    33    20    21   ar
    34    20    40    1
    35    21    41    1
    36    22    23    1
    37    22    29   ar
    38    23    28   ar
    39    23    24   ar
    40    24    25   ar
    41    24    42    1
    42    25    26   ar
    43    25    43    1
    44    26    27   ar
    45    26    44    1
    46    27    28   ar
    47    27    45    1
    48    28    46    1
    49    30    31   ar
    50    30    47    1
    51    31    48    1
@<TRIPOS>SUBSTRUCTURE
     1 ZINC000002634904        1 TEMP              0 ****  ****    0 ROOT


##########                                Name:    ZINC000770814339
##########                DOCK_Rotatable_Bonds:                  13
##########                         Heavy_Atoms:                  28
##########                    Molecular_Weight:             409.423
##########                DOCK_Rotatable_Bonds:                  13
##########                       Formal_Charge:          -0.0100008
##########                     HBond_Acceptors:                  12
##########                        HBond_Donors:                   4
##########                         Heavy_Atoms:                  28
##########                          Grid_Score:          -40.196991
##########                     Grid_vdw_energy:          -39.316910
##########                      Grid_es_energy:           -0.880080
##########           Internal_energy_repulsive:           10.935080

@<TRIPOS>MOLECULE
ZINC000770814339
 47 48 1 0 0
SMALL
USER_CHARGES


@<TRIPOS>ATOM
      1 C1        -17.2190   -1.1611   64.9840 C.3     1  ZINC000770814339   -0.1500
      2 C2        -15.7471   -1.0413   65.3842 C.3     1  ZINC000770814339    0.0600
      3 O3        -14.9789   -0.5389   64.2591 O.3     1  ZINC000770814339   -0.3500
      4 C4        -14.6806   -1.4137   63.2858 C.2     1  ZINC000770814339    0.4700
      5 O5        -14.9449   -2.5845   63.4240 O.2     1  ZINC000770814339   -0.4800
      6 C6        -14.0160   -0.9354   62.0206 C.3     1  ZINC000770814339    0.0700
      7 O7        -12.6225   -1.2485   62.0669 O.3     1  ZINC000770814339   -0.1800
      8 N8        -11.8981   -0.5100   63.0338 N.2     1  ZINC000770814339   -0.2800
      9 C9        -10.5953   -0.5059   63.0087 C.2     1  ZINC000770814339    0.1800
     10 C10        -9.8718   -1.2727   61.9670 C.2     1  ZINC000770814339    0.5900
     11 O11        -9.0704   -2.1275   62.2885 O.2     1  ZINC000770814339   -0.5100
     12 N12       -10.1027   -1.0217   60.6632 N.am    1  ZINC000770814339   -0.7000
     13 C13        -9.3888   -1.7808   59.6335 C.3     1  ZINC000770814339    0.1500
     14 C14       -10.3847   -2.4650   58.7328 C.ar    1  ZINC000770814339   -0.0600
     15 C15       -11.1099   -1.7262   57.8168 C.ar    1  ZINC000770814339   -0.1200
     16 C16       -12.0233   -2.3539   56.9906 C.ar    1  ZINC000770814339   -0.0200
     17 C17       -12.2111   -3.7205   57.0800 C.ar    1  ZINC000770814339   -0.6700
     18 S18       -13.3758   -4.5205   56.0272 S.o2    1  ZINC000770814339    2.7000
     19 N19       -12.7847   -4.4287   54.4831 N.am    1  ZINC000770814339   -1.2500
     20 O20       -13.3588   -5.8963   56.3824 O.2     1  ZINC000770814339   -0.9600
     21 O21       -14.5532   -3.7253   56.0541 O.2     1  ZINC000770814339   -0.9600
     22 C22       -11.4849   -4.4596   57.9950 C.ar    1  ZINC000770814339   -0.0200
     23 C23       -10.5687   -3.8324   58.8186 C.ar    1  ZINC000770814339   -0.1200
     24 C24        -9.8398    0.2625   64.0181 C.2     1  ZINC000770814339    0.0600
     25 C25       -10.3627    1.1608   64.9233 C.2     1  ZINC000770814339   -0.2000
     26 C26        -9.3064    1.6561   65.6864 C.2     1  ZINC000770814339    0.0400
     27 N27        -8.1953    1.0974   65.2778 N.2     1  ZINC000770814339   -0.2600
     28 N28        -8.4934    0.2124   64.2342 N.pl3   1  ZINC000770814339   -0.4400
     29 H29       -17.7956   -1.5383   65.8286 H       1  ZINC000770814339    0.0800
     30 H30       -17.5976   -0.1810   64.6942 H       1  ZINC000770814339    0.0700
     31 H31       -17.3122   -1.8495   64.1440 H       1  ZINC000770814339    0.0700
     32 H32       -15.6538   -0.3529   66.2242 H       1  ZINC000770814339    0.0700
     33 H33       -15.3685   -2.0215   65.6740 H       1  ZINC000770814339    0.0700
     34 H34       -14.4711   -1.4294   61.1621 H       1  ZINC000770814339    0.1100
     35 H35       -14.1432    0.1432   61.9287 H       1  ZINC000770814339    0.1100
     36 H36       -10.7416   -0.3383   60.4065 H       1  ZINC000770814339    0.4100
     37 H37        -8.7720   -1.1024   59.0441 H       1  ZINC000770814339    0.0900
     38 H38        -8.7543   -2.5292   60.1083 H       1  ZINC000770814339    0.0900
     39 H39       -10.9632   -0.6585   57.7469 H       1  ZINC000770814339    0.1400
     40 H40       -12.5904   -1.7765   56.2755 H       1  ZINC000770814339    0.1500
     41 H41       -13.2857   -4.8156   53.7482 H       1  ZINC000770814339    0.4200
     42 H42       -11.9373   -3.9881   54.3136 H       1  ZINC000770814339    0.4200
     43 H43       -11.6313   -5.5273   58.0646 H       1  ZINC000770814339    0.1500
     44 H44       -10.0013   -4.4098   59.5334 H       1  ZINC000770814339    0.1400
     45 H45       -11.4032    1.4324   65.0231 H       1  ZINC000770814339    0.1700
     46 H46        -9.3907    2.3809   66.4826 H       1  ZINC000770814339    0.1900
     47 H47        -7.8563   -0.3340   63.7481 H       1  ZINC000770814339    0.4500
@<TRIPOS>BOND
     1     1     2    1
     2     1    29    1
     3     1    30    1
     4     1    31    1
     5     2     3    1
     6     2    32    1
     7     2    33    1
     8     3     4    1
     9     4     5    2
    10     4     6    1
    11     6     7    1
    12     6    34    1
    13     6    35    1
    14     7     8    1
    15     8     9    2
    16     9    10    1
    17     9    24    1
    18    10    11    2
    19    10    12   am
    20    12    13    1
    21    12    36    1
    22    13    14    1
    23    13    37    1
    24    13    38    1
    25    14    23   ar
    26    14    15   ar
    27    15    16   ar
    28    15    39    1
    29    16    17   ar
    30    16    40    1
    31    17    18    1
    32    17    22   ar
    33    18    19   am
    34    18    20    2
    35    18    21    2
    36    19    41    1
    37    19    42    1
    38    22    23   ar
    39    22    43    1
    40    23    44    1
    41    24    28    1
    42    24    25    2
    43    25    26    1
    44    25    45    1
    45    26    27    2
    46    26    46    1
    47    27    28    1
    48    28    47    1
@<TRIPOS>SUBSTRUCTURE
     1 ZINC000770814339        1 TEMP              0 ****  ****    0 ROOT


##########                                Name:    ZINC000770850676
##########                DOCK_Rotatable_Bonds:                  13
##########                         Heavy_Atoms:                  30
##########                    Molecular_Weight:             412.486
##########                DOCK_Rotatable_Bonds:                  13
##########                       Formal_Charge:          -0.0299994
##########                     HBond_Acceptors:                   7
##########                        HBond_Donors:                   3
##########                         Heavy_Atoms:                  30
##########                          Grid_Score:          -40.139545
##########                     Grid_vdw_energy:          -39.310101
##########                      Grid_es_energy:           -0.829445
##########           Internal_energy_repulsive:           16.026821

@<TRIPOS>MOLECULE
ZINC000770850676
 58 60 1 0 0
SMALL
USER_CHARGES


@<TRIPOS>ATOM
      1 O1        -13.6062   -1.7299   56.5155 O.2     1  ZINC000770850676   -0.5300
      2 C2        -13.5668   -2.9388   56.4263 C.2     1  ZINC000770850676    0.5100
      3 N3        -13.2307   -3.5177   55.2565 N.am    1  ZINC000770850676   -0.7000
      4 C4        -12.9189   -2.6867   54.0910 C.3     1  ZINC000770850676    0.1600
      5 H5        -13.7009   -1.9391   53.9581 H       1  ZINC000770850676    0.1000
      6 C6        -12.8385   -3.5681   52.8430 C.3     1  ZINC000770850676    0.0600
      7 O7        -12.0955   -4.7514   53.1426 O.3     1  ZINC000770850676   -0.5700
      8 C8        -11.5759   -1.9866   54.3083 C.3     1  ZINC000770850676   -0.1500
      9 C9        -11.5631   -0.6600   53.5462 C.3     1  ZINC000770850676    0.1500
     10 H10       -12.3376   -0.6741   52.7794 H       1  ZINC000770850676    0.1100
     11 O11       -11.8122    0.4140   54.4552 O.3     1  ZINC000770850676   -0.5400
     12 C12       -10.2169   -0.4666   52.8971 C.ar    1  ZINC000770850676   -0.1200
     13 C13        -9.7122   -1.4357   52.0502 C.ar    1  ZINC000770850676   -0.1100
     14 C14        -8.4774   -1.2583   51.4548 C.ar    1  ZINC000770850676   -0.1200
     15 C15        -7.7474   -0.1117   51.7058 C.ar    1  ZINC000770850676   -0.1200
     16 C16        -8.2524    0.8579   52.5519 C.ar    1  ZINC000770850676   -0.1200
     17 C17        -9.4891    0.6825   53.1439 C.ar    1  ZINC000770850676   -0.1100
     18 C18       -13.8876   -3.7937   57.6253 C.3     1  ZINC000770850676    0.1400
     19 H19       -13.5128   -4.8054   57.4700 H       1  ZINC000770850676    0.1000
     20 C20       -15.4137   -3.8285   57.8518 C.3     1  ZINC000770850676   -0.1200
     21 C21       -15.5366   -3.7872   59.3980 C.3     1  ZINC000770850676   -0.1300
     22 C22       -14.3540   -2.8621   59.7792 C.3     1  ZINC000770850676    0.1000
     23 N23       -13.2773   -3.2137   58.8306 N.am    1  ZINC000770850676   -0.5900
     24 C24       -11.9580   -3.0310   59.0367 C.2     1  ZINC000770850676    0.6700
     25 O25       -11.1584   -3.3582   58.1823 O.2     1  ZINC000770850676   -0.5600
     26 O26       -11.5260   -2.4857   60.1894 O.3     1  ZINC000770850676   -0.3600
     27 C27       -10.1693   -1.9686   60.2063 C.3     1  ZINC000770850676    0.1300
     28 C28       -10.0208   -0.9847   61.3380 C.ar    1  ZINC000770850676   -0.1000
     29 C29       -10.5613    0.2828   61.2273 C.ar    1  ZINC000770850676   -0.0900
     30 C30       -10.4251    1.1854   62.2655 C.ar    1  ZINC000770850676   -0.1200
     31 C31        -9.7488    0.8203   63.4145 C.ar    1  ZINC000770850676   -0.1100
     32 C32        -9.2091   -0.4475   63.5256 C.ar    1  ZINC000770850676   -0.1200
     33 C33        -9.3490   -1.3515   62.4892 C.ar    1  ZINC000770850676   -0.0900
     34 H34       -13.1954   -4.4845   55.1862 H       1  ZINC000770850676    0.4000
     35 H35       -13.8449   -3.8415   52.5259 H       1  ZINC000770850676    0.0500
     36 H36       -12.3417   -3.0200   52.0424 H       1  ZINC000770850676    0.0500
     37 H37       -11.4720   -5.0101   52.4502 H       1  ZINC000770850676    0.3800
     38 H38       -11.4336   -1.7959   55.3721 H       1  ZINC000770850676    0.0800
     39 H39       -10.7707   -2.6236   53.9426 H       1  ZINC000770850676    0.0900
     40 H40       -11.0292    0.7086   54.9401 H       1  ZINC000770850676    0.3700
     41 H41       -10.2826   -2.3316   51.8541 H       1  ZINC000770850676    0.1200
     42 H42        -8.0828   -2.0158   50.7938 H       1  ZINC000770850676    0.1200
     43 H43        -6.7823    0.0266   51.2412 H       1  ZINC000770850676    0.1200
     44 H44        -7.6819    1.7536   52.7483 H       1  ZINC000770850676    0.1200
     45 H45        -9.8837    1.4399   53.8050 H       1  ZINC000770850676    0.1200
     46 H46       -15.8901   -2.9565   57.4036 H       1  ZINC000770850676    0.0800
     47 H47       -15.8416   -4.7493   57.4554 H       1  ZINC000770850676    0.1000
     48 H48       -16.4879   -3.3509   59.7028 H       1  ZINC000770850676    0.0900
     49 H49       -15.4091   -4.7812   59.8267 H       1  ZINC000770850676    0.0800
     50 H50       -14.6375   -1.8161   59.6625 H       1  ZINC000770850676    0.0700
     51 H51       -14.0344   -3.0574   60.8029 H       1  ZINC000770850676    0.0900
     52 H52        -9.4685   -2.7917   60.3461 H       1  ZINC000770850676    0.0800
     53 H53        -9.9591   -1.4691   59.2606 H       1  ZINC000770850676    0.0800
     54 H54       -11.0898    0.5680   60.3297 H       1  ZINC000770850676    0.1200
     55 H55       -10.8468    2.1759   62.1788 H       1  ZINC000770850676    0.1300
     56 H56        -9.6418    1.5258   64.2253 H       1  ZINC000770850676    0.1300
     57 H57        -8.6804   -0.7325   64.4231 H       1  ZINC000770850676    0.1300
     58 H58        -8.9273   -2.3419   62.5759 H       1  ZINC000770850676    0.1200
@<TRIPOS>BOND
     1     1     2    2
     2     2     3   am
     3     2    18    1
     4     3     4    1
     5     3    34    1
     6     4     5    1
     7     4     6    1
     8     4     8    1
     9     6     7    1
    10     6    35    1
    11     6    36    1
    12     7    37    1
    13     8     9    1
    14     8    38    1
    15     8    39    1
    16     9    10    1
    17     9    11    1
    18     9    12    1
    19    11    40    1
    20    12    17   ar
    21    12    13   ar
    22    13    14   ar
    23    13    41    1
    24    14    15   ar
    25    14    42    1
    26    15    16   ar
    27    15    43    1
    28    16    17   ar
    29    16    44    1
    30    17    45    1
    31    18    19    1
    32    18    23    1
    33    18    20    1
    34    20    21    1
    35    20    46    1
    36    20    47    1
    37    21    22    1
    38    21    48    1
    39    21    49    1
    40    22    23    1
    41    22    50    1
    42    22    51    1
    43    23    24   am
    44    24    25    2
    45    24    26    1
    46    26    27    1
    47    27    28    1
    48    27    52    1
    49    27    53    1
    50    28    33   ar
    51    28    29   ar
    52    29    30   ar
    53    29    54    1
    54    30    31   ar
    55    30    55    1
    56    31    32   ar
    57    31    56    1
    58    32    33   ar
    59    32    57    1
    60    33    58    1
@<TRIPOS>SUBSTRUCTURE
     1 ZINC000770850676        1 TEMP              0 ****  ****    0 ROOT


##########                                Name:    ZINC000824084043
##########                DOCK_Rotatable_Bonds:                  11
##########                         Heavy_Atoms:                  27
##########                    Molecular_Weight:             382.547
##########                DOCK_Rotatable_Bonds:                  11
##########                       Formal_Charge:        -6.85453e-07
##########                     HBond_Acceptors:                   7
##########                        HBond_Donors:                   3
##########                         Heavy_Atoms:                  27
##########                          Grid_Score:          -40.012474
##########                     Grid_vdw_energy:          -35.239662
##########                      Grid_es_energy:           -4.772811
##########           Internal_energy_repulsive:           20.789101

@<TRIPOS>MOLECULE
ZINC000824084043
 65 66 1 0 0
SMALL
USER_CHARGES


@<TRIPOS>ATOM
      1 C1        -15.2498   -2.6408   53.4814 C.3     1  ZINC000824084043   -0.1400
      2 C2        -14.0258   -3.0172   52.6441 C.3     1  ZINC000824084043   -0.1000
      3 C3        -14.0366   -2.2202   51.3382 C.3     1  ZINC000824084043   -0.1300
      4 C4        -12.7525   -2.6941   53.4283 C.3     1  ZINC000824084043    0.1700
      5 H5        -12.7708   -1.6487   53.7361 H       1  ZINC000824084043    0.0700
      6 C6        -12.6753   -3.5892   54.6667 C.3     1  ZINC000824084043   -0.1400
      7 C7        -11.2851   -3.4719   55.2949 C.3     1  ZINC000824084043    0.1300
      8 N8        -11.3861   -3.6643   56.7438 N.am    1  ZINC000824084043   -0.6200
      9 C9        -12.0840   -4.8353   57.2803 C.3     1  ZINC000824084043    0.0800
     10 C10       -10.8368   -2.7641   57.5830 C.2     1  ZINC000824084043    0.7000
     11 O11       -10.2563   -1.7929   57.1378 O.2     1  ZINC000824084043   -0.5800
     12 N12       -10.9311   -2.9402   58.9159 N.am    1  ZINC000824084043   -0.7500
     13 C13       -10.3326   -1.9627   59.8282 C.3     1  ZINC000824084043    0.1600
     14 C14       -11.3217   -0.8197   60.0746 C.3     1  ZINC000824084043   -0.1600
     15 C15       -10.7222    0.1563   61.0893 C.3     1  ZINC000824084043   -0.0100
     16 N16       -10.4582   -0.5450   62.3514 N.4     1  ZINC000824084043   -0.3800
     17 H17       -11.3133   -0.9605   62.6893 H       1  ZINC000824084043    0.4200
     18 C18        -9.9543    0.4120   63.3455 C.3     1  ZINC000824084043    0.0000
     19 C19       -11.1227    1.2208   63.9127 C.3     1  ZINC000824084043   -0.1200
     20 C20       -10.9514    1.4234   65.4387 C.3     1  ZINC000824084043   -0.1400
     21 C21       -11.7989    2.6906   65.7124 C.3     1  ZINC000824084043   -0.1200
     22 C22       -11.5475    3.5870   64.4823 C.3     1  ZINC000824084043   -0.1300
     23 C23       -11.1175    2.6524   63.3380 C.3     1  ZINC000824084043   -0.1100
     24 C24        -9.4565   -1.5963   62.1369 C.3     1  ZINC000824084043    0.0000
     25 C25       -10.0073   -2.6398   61.1627 C.3     1  ZINC000824084043   -0.1600
     26 N26       -11.5824   -2.9328   52.5795 N.am    1  ZINC000824084043   -0.7800
     27 C27       -10.5981   -2.0145   52.5150 C.2     1  ZINC000824084043    0.6600
     28 O28        -9.6206   -2.2144   51.8076 O.co2   1  ZINC000824084043   -0.7200
     29 O29       -10.6824   -0.9811   53.1640 O.co2   1  ZINC000824084043   -0.7300
     30 H30       -16.1570   -2.8710   52.9227 H       1  ZINC000824084043    0.0500
     31 H31       -15.2421   -3.2087   54.4118 H       1  ZINC000824084043    0.0500
     32 H32       -15.2222   -1.5747   53.7062 H       1  ZINC000824084043    0.0500
     33 H33       -14.0534   -4.0835   52.4192 H       1  ZINC000824084043    0.0500
     34 H34       -14.0090   -1.1540   51.5630 H       1  ZINC000824084043    0.0600
     35 H35       -13.1647   -2.4884   50.7416 H       1  ZINC000824084043    0.0700
     36 H36       -14.9438   -2.4504   50.7795 H       1  ZINC000824084043    0.0300
     37 H37       -13.4283   -3.2751   55.3896 H       1  ZINC000824084043    0.0700
     38 H38       -12.8576   -4.6245   54.3788 H       1  ZINC000824084043    0.0600
     39 H39       -10.6299   -4.2334   54.8721 H       1  ZINC000824084043    0.0900
     40 H40       -10.8749   -2.4835   55.0874 H       1  ZINC000824084043    0.0900
     41 H41       -11.3762   -5.6549   57.4044 H       1  ZINC000824084043    0.0600
     42 H42       -12.5236   -4.5854   58.2458 H       1  ZINC000824084043    0.0600
     43 H43       -12.8716   -5.1368   56.5896 H       1  ZINC000824084043    0.0800
     44 H44       -11.3954   -3.7144   59.2711 H       1  ZINC000824084043    0.4000
     45 H45        -9.4177   -1.5660   59.3881 H       1  ZINC000824084043    0.1100
     46 H46       -11.5152   -0.2975   59.1376 H       1  ZINC000824084043    0.1200
     47 H47       -12.2550   -1.2242   60.4663 H       1  ZINC000824084043    0.0900
     48 H48        -9.7891    0.5603   60.6966 H       1  ZINC000824084043    0.1300
     49 H49       -11.4237    0.9715   61.2669 H       1  ZINC000824084043    0.1300
     50 H50        -9.4609   -0.1289   64.1530 H       1  ZINC000824084043    0.1300
     51 H51        -9.2415    1.0867   62.8716 H       1  ZINC000824084043    0.1300
     52 H52       -12.0692    0.7259   63.6954 H       1  ZINC000824084043    0.1000
     53 H53       -11.3456    0.5688   65.9885 H       1  ZINC000824084043    0.0700
     54 H54        -9.9051    1.5968   65.6904 H       1  ZINC000824084043    0.0800
     55 H55       -12.8556    2.4339   65.7879 H       1  ZINC000824084043    0.0700
     56 H56       -11.4601    3.1871   66.6217 H       1  ZINC000824084043    0.0800
     57 H57       -12.4625    4.1134   64.2107 H       1  ZINC000824084043    0.0700
     58 H58       -10.7543    4.3028   64.6979 H       1  ZINC000824084043    0.0700
     59 H59       -10.1156    2.9147   62.9982 H       1  ZINC000824084043    0.0700
     60 H60       -11.8238    2.7253   62.5111 H       1  ZINC000824084043    0.0800
     61 H61        -8.5504   -1.1549   61.7220 H       1  ZINC000824084043    0.1300
     62 H62        -9.2237   -2.0751   63.0881 H       1  ZINC000824084043    0.1300
     63 H63       -10.9133   -3.0820   61.5768 H       1  ZINC000824084043    0.0900
     64 H64        -9.2614   -3.4185   61.0035 H       1  ZINC000824084043    0.1200
     65 H65       -11.5163   -3.7518   52.0639 H       1  ZINC000824084043    0.3600
@<TRIPOS>BOND
     1     1     2    1
     2     1    30    1
     3     1    31    1
     4     1    32    1
     5     2     3    1
     6     2     4    1
     7     2    33    1
     8     3    34    1
     9     3    35    1
    10     3    36    1
    11     4     5    1
    12     4     6    1
    13     4    26    1
    14     6     7    1
    15     6    37    1
    16     6    38    1
    17     7     8    1
    18     7    39    1
    19     7    40    1
    20     8     9    1
    21     8    10   am
    22     9    41    1
    23     9    42    1
    24     9    43    1
    25    10    11    2
    26    10    12   am
    27    12    13    1
    28    12    44    1
    29    13    25    1
    30    13    14    1
    31    13    45    1
    32    14    15    1
    33    14    46    1
    34    14    47    1
    35    15    16    1
    36    15    48    1
    37    15    49    1
    38    16    17    1
    39    16    18    1
    40    16    24    1
    41    18    19    1
    42    18    50    1
    43    18    51    1
    44    19    23    1
    45    19    20    1
    46    19    52    1
    47    20    21    1
    48    20    53    1
    49    20    54    1
    50    21    22    1
    51    21    55    1
    52    21    56    1
    53    22    23    1
    54    22    57    1
    55    22    58    1
    56    23    59    1
    57    23    60    1
    58    24    25    1
    59    24    61    1
    60    24    62    1
    61    25    63    1
    62    25    64    1
    63    26    27   am
    64    26    65    1
    65    27    28   ar
    66    27    29   ar
@<TRIPOS>SUBSTRUCTURE
     1 ZINC000824084043        1 TEMP              0 ****  ****    0 ROOT


##########                                Name:    ZINC000821442454
##########                DOCK_Rotatable_Bonds:                   6
##########                         Heavy_Atoms:                  26
##########                    Molecular_Weight:             398.873
##########                DOCK_Rotatable_Bonds:                   6
##########                       Formal_Charge:          -0.0399996
##########                     HBond_Acceptors:                  11
##########                        HBond_Donors:                   2
##########                         Heavy_Atoms:                  26
##########                          Grid_Score:          -39.870903
##########                     Grid_vdw_energy:          -39.189777
##########                      Grid_es_energy:           -0.681126
##########           Internal_energy_repulsive:           12.648674

@<TRIPOS>MOLECULE
ZINC000821442454
 45 47 1 0 0
SMALL
USER_CHARGES


@<TRIPOS>ATOM
      1 C1        -11.1693   -1.4163   52.5999 C.3     1  ZINC000821442454   -0.1500
      2 C2        -11.4986   -2.1204   53.9177 C.3     1  ZINC000821442454   -0.6300
      3 S3        -12.4913   -3.6008   53.5808 S.o2    1  ZINC000821442454    2.6000
      4 O4        -13.7788   -3.2392   53.1005 O.2     1  ZINC000821442454   -0.9500
      5 O5        -11.7103   -4.5838   52.9151 O.2     1  ZINC000821442454   -0.9500
      6 N6        -12.7812   -4.2528   55.0752 N.am    1  ZINC000821442454   -1.0000
      7 C7        -13.5697   -5.4848   55.2142 C.3     1  ZINC000821442454    0.1100
      8 C8        -14.7117   -5.2303   56.2031 C.3     1  ZINC000821442454   -0.1300
      9 C9        -14.1343   -4.7019   57.5181 C.3     1  ZINC000821442454   -0.1100
     10 C10       -13.4113   -3.3772   57.2640 C.3     1  ZINC000821442454   -0.1200
     11 H11       -14.1095   -2.6580   56.8357 H       1  ZINC000821442454    0.1100
     12 C12       -12.8715   -2.8410   58.5649 C.2     1  ZINC000821442454    0.5300
     13 O13       -13.4998   -2.9937   59.5910 O.2     1  ZINC000821442454   -0.5100
     14 N14       -11.6907   -2.1918   58.5880 N.am    1  ZINC000821442454   -0.6700
     15 C15       -11.1897   -1.6941   59.7953 C.ar    1  ZINC000821442454    0.1800
     16 C16       -11.7995   -0.6037   60.4025 C.ar    1  ZINC000821442454   -0.1200
     17 C17       -11.3076   -0.1116   61.5933 C.ar    1  ZINC000821442454   -0.0500
     18 C18       -10.1980   -0.7086   62.1879 C.ar    1  ZINC000821442454   -0.0300
     19 C19        -9.6676   -0.1805   63.4696 C.2     1  ZINC000821442454    0.2200
     20 N20        -9.0962   -0.8771   64.4320 N.2     1  ZINC000821442454   -0.2900
     21 N21        -8.7743   -0.0582   65.3737 N.pl3   1  ZINC000821442454   -0.2200
     22 N22        -9.1234    1.1347   65.0385 N.2     1  ZINC000821442454   -0.0400
     23 N23        -9.6711    1.0985   63.8713 N.2     1  ZINC000821442454   -0.2700
     24 C24        -9.5868   -1.8027   61.5778 C.ar    1  ZINC000821442454   -0.0500
     25 C25       -10.0851   -2.2954   60.3894 C.ar    1  ZINC000821442454   -0.0800
     26 Cl26       -9.3249   -3.6580   59.6285 Cl      1  ZINC000821442454   -0.0500
     27 C27       -12.2498   -3.6138   56.2867 C.3     1  ZINC000821442454    0.1400
     28 H28       -10.6060   -2.0930   51.9573 H       1  ZINC000821442454    0.0700
     29 H29       -12.0946   -1.1277   52.1011 H       1  ZINC000821442454    0.0700
     30 H30       -10.5729   -0.5267   52.8024 H       1  ZINC000821442454    0.0800
     31 H31       -10.5734   -2.4089   54.4165 H       1  ZINC000821442454    0.1300
     32 H32       -12.0621   -1.4436   54.5603 H       1  ZINC000821442454    0.1300
     33 H33       -13.9814   -5.7665   54.2451 H       1  ZINC000821442454    0.1000
     34 H34       -12.9329   -6.2858   55.5897 H       1  ZINC000821442454    0.0700
     35 H35       -15.3976   -4.4936   55.7848 H       1  ZINC000821442454    0.0700
     36 H36       -15.2464   -6.1619   56.3888 H       1  ZINC000821442454    0.0800
     37 H37       -14.9426   -4.5433   58.2320 H       1  ZINC000821442454    0.0700
     38 H38       -13.4297   -5.4282   57.9232 H       1  ZINC000821442454    0.0800
     39 H39       -11.1883   -2.0697   57.7673 H       1  ZINC000821442454    0.4200
     40 H40       -12.6595   -0.1407   59.9414 H       1  ZINC000821442454    0.1600
     41 H41       -11.7821    0.7365   62.0645 H       1  ZINC000821442454    0.1500
     42 H42        -8.3378   -0.3024   66.2047 H       1  ZINC000821442454    0.4800
     43 H43        -8.7266   -2.2669   62.0370 H       1  ZINC000821442454    0.1500
     44 H44       -11.5068   -4.2615   56.7521 H       1  ZINC000821442454    0.0800
     45 H45       -11.7927   -2.6596   56.0246 H       1  ZINC000821442454    0.1000
@<TRIPOS>BOND
     1     1     2    1
     2     1    28    1
     3     1    29    1
     4     1    30    1
     5     2     3    1
     6     2    31    1
     7     2    32    1
     8     3     4    2
     9     3     5    2
    10     3     6   am
    11     6    27    1
    12     6     7    1
    13     7     8    1
    14     7    33    1
    15     7    34    1
    16     8     9    1
    17     8    35    1
    18     8    36    1
    19     9    10    1
    20     9    37    1
    21     9    38    1
    22    10    11    1
    23    10    12    1
    24    10    27    1
    25    12    13    2
    26    12    14   am
    27    14    15    1
    28    14    39    1
    29    15    25   ar
    30    15    16   ar
    31    16    17   ar
    32    16    40    1
    33    17    18   ar
    34    17    41    1
    35    18    19    1
    36    18    24   ar
    37    19    23    1
    38    19    20    2
    39    20    21    1
    40    21    22    1
    41    21    42    1
    42    22    23    2
    43    24    25   ar
    44    24    43    1
    45    25    26    1
    46    27    44    1
    47    27    45    1
@<TRIPOS>SUBSTRUCTURE
     1 ZINC000821442454        1 TEMP              0 ****  ****    0 ROOT


##########                                Name:     oleObject17.pdb
##########                DOCK_Rotatable_Bonds:                   8
##########                         Heavy_Atoms:                  29
##########                    Molecular_Weight:             435.393
##########                DOCK_Rotatable_Bonds:                   8
##########                       Formal_Charge:         0.000400059
##########                     HBond_Acceptors:                   6
##########                        HBond_Donors:                   0
##########                         Heavy_Atoms:                  29
##########                          Grid_Score:          -39.744823
##########                     Grid_vdw_energy:          -39.463867
##########                      Grid_es_energy:           -0.280958
##########           Internal_energy_repulsive:           17.586143

@<TRIPOS>MOLECULE
oleObject17.pdb
 57 59 1 0 0
SMALL
NO_CHARGES


@<TRIPOS>ATOM
      1 C         -13.5774   -2.1632   53.0314 C.3     1  UNL         0.0391
      2 C         -13.7601   -1.4139   51.7097 C.ar    1  UNL        -0.0277
      3 C         -13.3006   -0.0878   51.5091 C.ar    1  UNL        -0.0463
      4 C         -13.5356    0.5469   50.2734 C.ar    1  UNL        -0.0590
      5 C         -14.2140   -0.1189   49.2423 C.ar    1  UNL        -0.0620
      6 C         -14.6532   -1.4356   49.4330 C.ar    1  UNL        -0.0619
      7 C         -14.4212   -2.0784   50.6580 C.ar    1  UNL        -0.0572
      8 C         -12.5483    0.6828   52.5885 C.3     1  UNL        -0.0394
      9 N         -12.3105   -2.9237   53.0865 N.am    1  UNL        -0.3003
     10 C         -11.9780   -3.6872   54.2053 C.2     1  UNL         0.2175
     11 O         -10.8251   -4.0466   54.3745 O.2     1  UNL        -0.2772
     12 C         -13.0001   -3.6925   55.3727 C.3     1  UNL         0.0384
     13 C         -12.8488   -2.4646   56.3059 C.3     1  UNL        -0.0289
     14 C         -11.5439   -2.5354   57.1226 C.3     1  UNL        -0.0010
     15 N         -11.4633   -3.7769   57.9232 N.4     1  UNL        -0.3010
     16 C         -11.6604   -5.0227   57.1455 C.3     1  UNL        -0.0010
     17 C         -12.9197   -4.9773   56.2418 C.3     1  UNL        -0.0289
     18 C         -10.2909   -3.8169   58.8270 C.3     1  UNL         0.0222
     19 C         -10.5540   -3.1812   60.2119 C.3     1  UNL         0.0661
     20 O          -9.6517   -2.0750   60.3816 O.3     1  UNL        -0.3432
     21 C          -9.7303   -1.2009   61.4489 C.ar    1  UNL         0.0937
     22 C          -9.1043   -1.4732   62.6845 C.ar    1  UNL        -0.0288
     23 C          -9.2003   -0.5554   63.7434 C.ar    1  UNL        -0.0408
     24 C          -9.9229    0.6364   63.5770 C.ar    1  UNL         0.0422
     25 C         -10.5517    0.9128   62.3529 C.ar    1  UNL        -0.0221
     26 C         -10.4566   -0.0030   61.2916 C.ar    1  UNL         0.0723
     27 CL        -11.2490    0.3754   59.7735 Cl      1  UNL        -0.0814
     28 CL        -10.0402    1.7788   64.8983 Cl      1  UNL        -0.0843
     29 C         -11.4356   -2.8150   51.9048 C.3     1  UNL         0.0031
     30 H         -14.4041   -2.8602   53.2081 H       1  UNL         0.0520
     31 H         -13.6047   -1.4314   53.8485 H       1  UNL         0.0520
     32 H         -13.1919    1.5640   50.1083 H       1  UNL         0.0626
     33 H         -14.3924    0.3829   48.2954 H       1  UNL         0.0623
     34 H         -15.1737   -1.9567   48.6347 H       1  UNL         0.0623
     35 H         -14.7701   -3.0975   50.7960 H       1  UNL         0.0626
     36 H         -11.6759    0.1198   52.9424 H       1  UNL         0.0280
     37 H         -13.1926    0.8924   53.4499 H       1  UNL         0.0280
     38 H         -12.1795    1.6464   52.2162 H       1  UNL         0.0280
     39 H         -14.0009   -3.6635   54.9260 H       1  UNL         0.0402
     40 H         -13.6993   -2.4310   56.9992 H       1  UNL         0.0288
     41 H         -12.8786   -1.5287   55.7382 H       1  UNL         0.0288
     42 H         -11.4899   -1.6605   57.7831 H       1  UNL         0.0431
     43 H         -10.6983   -2.4819   56.4277 H       1  UNL         0.0431
     44 H         -11.7512   -5.8743   57.8318 H       1  UNL         0.0431
     45 H         -10.7823   -5.2096   56.5174 H       1  UNL         0.0431
     46 H         -13.8081   -5.0231   56.8849 H       1  UNL         0.0288
     47 H         -12.9521   -5.8692   55.6030 H       1  UNL         0.0288
     48 H          -9.4469   -3.2974   58.3555 H       1  UNL         0.0455
     49 H          -9.9862   -4.8608   58.9758 H       1  UNL         0.0455
     50 H         -10.3776   -3.9200   61.0020 H       1  UNL         0.0586
     51 H         -11.5925   -2.8346   60.2751 H       1  UNL         0.0586
     52 H          -8.5436   -2.3896   62.8370 H       1  UNL         0.0651
     53 H          -8.7156   -0.7700   64.6917 H       1  UNL         0.0639
     54 H         -11.1110    1.8353   62.2255 H       1  UNL         0.0655
     55 H         -11.5142   -1.8127   51.4652 H       1  UNL         0.0433
     56 H         -11.7261   -3.5570   51.1513 H       1  UNL         0.0433
     57 H         -10.3896   -2.9799   52.1911 H       1  UNL         0.0433
@<TRIPOS>BOND
     1     1     2    1
     2     1     9    1
     3     1    30    1
     4     1    31    1
     5     2     3   ar
     6     2     7   ar
     7     3     4   ar
     8     3     8    1
     9     4     5   ar
    10     4    32    1
    11     5     6   ar
    12     5    33    1
    13     6     7   ar
    14     6    34    1
    15     7    35    1
    16     8    36    1
    17     8    37    1
    18     8    38    1
    19     9    10   am
    20     9    29    1
    21    10    11    2
    22    10    12    1
    23    12    13    1
    24    12    17    1
    25    12    39    1
    26    13    14    1
    27    13    40    1
    28    13    41    1
    29    14    15    1
    30    14    42    1
    31    14    43    1
    32    15    16    1
    33    15    18    1
    34    16    17    1
    35    16    44    1
    36    16    45    1
    37    17    46    1
    38    17    47    1
    39    18    19    1
    40    18    48    1
    41    18    49    1
    42    19    20    1
    43    19    50    1
    44    19    51    1
    45    20    21    1
    46    21    22   ar
    47    21    26   ar
    48    22    23   ar
    49    22    52    1
    50    23    24   ar
    51    23    53    1
    52    24    25   ar
    53    24    28    1
    54    25    26   ar
    55    25    54    1
    56    26    27    1
    57    29    55    1
    58    29    56    1
    59    29    57    1
@<TRIPOS>SUBSTRUCTURE
     1 UNL         1 TEMP              0 ****  ****    0 ROOT


##########                                Name:    ZINC000767361237
##########                DOCK_Rotatable_Bonds:                  10
##########                         Heavy_Atoms:                  30
##########                    Molecular_Weight:             409.439
##########                DOCK_Rotatable_Bonds:                  10
##########                       Formal_Charge:          -0.0300005
##########                     HBond_Acceptors:                   7
##########                        HBond_Donors:                   1
##########                         Heavy_Atoms:                  30
##########                          Grid_Score:          -39.740818
##########                     Grid_vdw_energy:          -39.101135
##########                      Grid_es_energy:           -0.639684
##########           Internal_energy_repulsive:           24.560120

@<TRIPOS>MOLECULE
ZINC000767361237
 53 55 1 0 0
SMALL
USER_CHARGES


@<TRIPOS>ATOM
      1 C1         -6.2451    1.0553   50.5471 C.3     1  ZINC000767361237   -0.1200
      2 C2         -7.4866    0.5983   51.2689 C.ar    1  ZINC000767361237   -0.0900
      3 C3         -7.8447   -0.7368   51.2509 C.ar    1  ZINC000767361237   -0.1200
      4 C4         -8.9835   -1.1560   51.9130 C.ar    1  ZINC000767361237   -0.1100
      5 C5         -9.7641   -0.2402   52.5933 C.ar    1  ZINC000767361237   -0.0800
      6 C6        -11.0058   -0.6971   53.3146 C.3     1  ZINC000767361237   -0.0800
      7 H7        -11.8838   -0.2611   52.8382 H       1  ZINC000767361237    0.0900
      8 C8        -10.9417   -0.2469   54.7754 C.3     1  ZINC000767361237   -0.1500
      9 C9        -11.0980   -2.2231   53.2548 C.3     1  ZINC000767361237    0.1300
     10 H10       -10.1283   -2.6557   53.5016 H       1  ZINC000767361237    0.1400
     11 O11       -11.4779   -2.6261   51.9376 O.3     1  ZINC000767361237   -0.5200
     12 C12       -12.1286   -2.7032   54.2439 C.2     1  ZINC000767361237    0.4300
     13 O13       -13.2246   -2.1952   54.2689 O.2     1  ZINC000767361237   -0.5000
     14 O14       -11.8291   -3.6953   55.0971 O.3     1  ZINC000767361237   -0.3300
     15 C15       -12.3346   -3.5739   56.4528 C.3     1  ZINC000767361237    0.0100
     16 C16       -11.4268   -4.3204   57.3961 C.2     1  ZINC000767361237    0.3700
     17 O17       -10.9819   -5.3976   57.0801 O.2     1  ZINC000767361237   -0.4200
     18 C18       -11.0744   -3.7225   58.7338 C.3     1  ZINC000767361237   -0.1800
     19 C19       -10.0627   -2.5918   58.5364 C.3     1  ZINC000767361237    0.1200
     20 N20       -10.1546   -1.6532   59.6575 N.am    1  ZINC000767361237   -0.5800
     21 C21        -9.8900   -1.9688   60.9381 C.2     1  ZINC000767361237    0.5700
     22 O22        -9.5425   -3.0602   61.3419 O.2     1  ZINC000767361237   -0.4600
     23 C23       -10.0923   -0.7648   61.7714 C.ar    1  ZINC000767361237   -0.1400
     24 C24        -9.9737   -0.4938   63.1247 C.ar    1  ZINC000767361237   -0.0400
     25 C25       -10.2461    0.7812   63.5968 C.ar    1  ZINC000767361237   -0.0900
     26 C26       -10.6348    1.7820   62.7269 C.ar    1  ZINC000767361237   -0.0900
     27 C27       -10.7577    1.5254   61.3699 C.ar    1  ZINC000767361237   -0.0400
     28 C28       -10.4888    0.2563   60.8839 C.ar    1  ZINC000767361237   -0.1400
     29 C29       -10.5091   -0.3607   59.5409 C.2     1  ZINC000767361237    0.5700
     30 O30       -10.7992    0.2041   58.5056 O.2     1  ZINC000767361237   -0.4600
     31 C31        -9.4053    1.0946   52.6125 C.ar    1  ZINC000767361237   -0.1100
     32 C32        -8.2644    1.5133   51.9536 C.ar    1  ZINC000767361237   -0.1200
     33 H33        -5.3914    1.0010   51.2227 H       1  ZINC000767361237    0.0700
     34 H34        -6.0680    0.4116   49.6855 H       1  ZINC000767361237    0.0700
     35 H35        -6.3778    2.0837   50.2113 H       1  ZINC000767361237    0.0700
     36 H36        -7.2347   -1.4523   50.7194 H       1  ZINC000767361237    0.1200
     37 H37        -9.2635   -2.1989   51.8982 H       1  ZINC000767361237    0.1200
     38 H38       -11.8398   -0.5773   55.2972 H       1  ZINC000767361237    0.0800
     39 H39       -10.0635   -0.6829   55.2518 H       1  ZINC000767361237    0.0700
     40 H40       -10.8760    0.8403   54.8181 H       1  ZINC000767361237    0.0600
     41 H41       -12.4257   -2.7871   51.8335 H       1  ZINC000767361237    0.3900
     42 H42       -12.3666   -2.5217   56.7358 H       1  ZINC000767361237    0.1100
     43 H43       -13.3385   -3.9950   56.5053 H       1  ZINC000767361237    0.1100
     44 H44       -11.9748   -3.3265   59.2033 H       1  ZINC000767361237    0.1100
     45 H45       -10.6398   -4.4916   59.3724 H       1  ZINC000767361237    0.1100
     46 H46        -9.0563   -3.0082   58.4928 H       1  ZINC000767361237    0.1100
     47 H47       -10.2800   -2.0682   57.6054 H       1  ZINC000767361237    0.1100
     48 H48        -9.6706   -1.2722   63.8092 H       1  ZINC000767361237    0.1400
     49 H49       -10.1543    0.9933   64.6517 H       1  ZINC000767361237    0.1400
     50 H50       -10.8446    2.7710   63.1067 H       1  ZINC000767361237    0.1400
     51 H51       -11.0615    2.3115   60.6946 H       1  ZINC000767361237    0.1400
     52 H52       -10.0149    1.8101   53.1443 H       1  ZINC000767361237    0.1200
     53 H53        -7.9840    2.5561   51.9685 H       1  ZINC000767361237    0.1200
@<TRIPOS>BOND
     1     1     2    1
     2     1    33    1
     3     1    34    1
     4     1    35    1
     5     2    32   ar
     6     2     3   ar
     7     3     4   ar
     8     3    36    1
     9     4     5   ar
    10     4    37    1
    11     5     6    1
    12     5    31   ar
    13     6     7    1
    14     6     8    1
    15     6     9    1
    16     8    38    1
    17     8    39    1
    18     8    40    1
    19     9    10    1
    20     9    11    1
    21     9    12    1
    22    11    41    1
    23    12    13    2
    24    12    14    1
    25    14    15    1
    26    15    16    1
    27    15    42    1
    28    15    43    1
    29    16    17    2
    30    16    18    1
    31    18    19    1
    32    18    44    1
    33    18    45    1
    34    19    20    1
    35    19    46    1
    36    19    47    1
    37    20    29   am
    38    20    21   am
    39    21    22    2
    40    21    23    1
    41    23    28   ar
    42    23    24   ar
    43    24    25   ar
    44    24    48    1
    45    25    26   ar
    46    25    49    1
    47    26    27   ar
    48    26    50    1
    49    27    28   ar
    50    27    51    1
    51    28    29    1
    52    29    30    2
    53    31    32   ar
    54    31    52    1
    55    32    53    1
@<TRIPOS>SUBSTRUCTURE
     1 ZINC000767361237        1 TEMP              0 ****  ****    0 ROOT


##########                                Name:    ZINC000464139057
##########                DOCK_Rotatable_Bonds:                   9
##########                         Heavy_Atoms:                  30
##########                    Molecular_Weight:              413.56
##########                DOCK_Rotatable_Bonds:                   9
##########                       Formal_Charge:         2.38419e-07
##########                     HBond_Acceptors:                   6
##########                        HBond_Donors:                   2
##########                         Heavy_Atoms:                  30
##########                          Grid_Score:          -39.611897
##########                     Grid_vdw_energy:          -39.458748
##########                      Grid_es_energy:           -0.153150
##########           Internal_energy_repulsive:           16.686497

@<TRIPOS>MOLECULE
ZINC000464139057
 65 67 1 0 0
SMALL
USER_CHARGES


@<TRIPOS>ATOM
      1 C1        -15.0663   -3.4443   56.2640 C.3     1  ZINC000464139057   -0.1800
      2 C2        -14.2031   -4.7070   56.2965 C.3     1  ZINC000464139057    0.0700
      3 H3        -14.8148   -5.5587   56.5943 H       1  ZINC000464139057    0.1200
      4 C4        -13.6149   -4.9612   54.9039 C.3     1  ZINC000464139057    0.0800
      5 N5        -12.6509   -3.8904   54.6048 N.am    1  ZINC000464139057   -0.6100
      6 C6        -12.7126   -3.2051   53.4459 C.2     1  ZINC000464139057    0.5600
      7 O7        -13.5737   -3.4679   52.6295 O.2     1  ZINC000464139057   -0.5300
      8 C8        -11.7328   -2.1333   53.1678 C.ar    1  ZINC000464139057   -0.1200
      9 C9        -10.6890   -2.3541   52.2678 C.ar    1  ZINC000464139057   -0.0900
     10 C10        -9.7784   -1.3497   52.0125 C.ar    1  ZINC000464139057   -0.1000
     11 C11        -9.8979   -0.1259   52.6466 C.ar    1  ZINC000464139057   -0.0900
     12 C12        -8.8992    0.9665   52.3631 C.3     1  ZINC000464139057    0.1800
     13 N13        -7.6157    0.3690   51.9867 N.am    1  ZINC000464139057   -0.7400
     14 C14        -6.7676    1.0436   51.1853 C.2     1  ZINC000464139057    0.7000
     15 O15        -7.0671    2.1486   50.7760 O.2     1  ZINC000464139057   -0.5900
     16 N16        -5.5875    0.4933   50.8376 N.am    1  ZINC000464139057   -0.7500
     17 C17        -4.6665    1.2257   49.9651 C.3     1  ZINC000464139057    0.1400
     18 C18        -3.8149    2.1780   50.8071 C.3     1  ZINC000464139057   -0.0900
     19 C19        -2.6683    2.6942   49.9766 C.2     1  ZINC000464139057   -0.1200
     20 C20        -1.5170    2.9081   50.5302 C.2     1  ZINC000464139057   -0.1500
     21 C21        -0.3569    3.4265   49.7075 C.3     1  ZINC000464139057   -0.0900
     22 C22         0.1332    2.3029   48.7916 C.3     1  ZINC000464139057   -0.1100
     23 C23        -0.6711    2.2688   47.5041 C.3     1  ZINC000464139057   -0.1200
     24 C24        -2.1257    1.8824   47.7051 C.3     1  ZINC000464139057   -0.1100
     25 C25        -2.8665    2.9540   48.4986 C.3     1  ZINC000464139057   -0.0800
     26 C26       -10.9305    0.0997   53.5396 C.ar    1  ZINC000464139057   -0.1000
     27 C27       -11.8509   -0.8944   53.7998 C.ar    1  ZINC000464139057   -0.0700
     28 C28       -11.6176   -3.5899   55.6085 C.3     1  ZINC000464139057    0.0700
     29 C29       -12.3031   -3.4025   56.9668 C.3     1  ZINC000464139057    0.0700
     30 H30       -12.9111   -2.4982   56.9461 H       1  ZINC000464139057    0.0700
     31 C31       -11.2419   -3.2799   58.0622 C.3     1  ZINC000464139057   -0.1500
     32 O32       -13.1378   -4.5332   57.2339 O.3     1  ZINC000464139057   -0.3700
     33 H33       -14.4540   -2.5931   55.9662 H       1  ZINC000464139057    0.0600
     34 H34       -15.8773   -3.5768   55.5479 H       1  ZINC000464139057    0.0700
     35 H35       -15.4827   -3.2632   57.2550 H       1  ZINC000464139057    0.0700
     36 H36       -13.1080   -5.9261   54.8899 H       1  ZINC000464139057    0.0800
     37 H37       -14.4130   -4.9544   54.1615 H       1  ZINC000464139057    0.1000
     38 H38       -10.5943   -3.3093   51.7728 H       1  ZINC000464139057    0.1300
     39 H39        -8.9703   -1.5193   51.3163 H       1  ZINC000464139057    0.1300
     40 H40        -9.2638    1.5890   51.5460 H       1  ZINC000464139057    0.0800
     41 H41        -8.7673    1.5787   53.2552 H       1  ZINC000464139057    0.0800
     42 H42        -7.3762   -0.5121   52.3141 H       1  ZINC000464139057    0.4000
     43 H43        -5.3480   -0.3879   51.1651 H       1  ZINC000464139057    0.4000
     44 H44        -4.0173    0.5196   49.4473 H       1  ZINC000464139057    0.0700
     45 H45        -5.2367    1.7986   49.2339 H       1  ZINC000464139057    0.0700
     46 H46        -4.4281    3.0154   51.1403 H       1  ZINC000464139057    0.0700
     47 H47        -3.4245    1.6458   51.6745 H       1  ZINC000464139057    0.0800
     48 H48        -1.3841    2.7158   51.5847 H       1  ZINC000464139057    0.1100
     49 H49        -0.6854    4.2731   49.1046 H       1  ZINC000464139057    0.0700
     50 H50         0.4511    3.7376   50.3697 H       1  ZINC000464139057    0.0700
     51 H51         1.1843    2.4665   48.5539 H       1  ZINC000464139057    0.0600
     52 H52         0.0269    1.3481   49.3066 H       1  ZINC000464139057    0.0600
     53 H53        -0.6331    3.2558   47.0431 H       1  ZINC000464139057    0.0600
     54 H54        -0.2106    1.5519   46.8243 H       1  ZINC000464139057    0.0600
     55 H55        -2.6026    1.7615   46.7324 H       1  ZINC000464139057    0.0600
     56 H56        -2.1746    0.9382   48.2476 H       1  ZINC000464139057    0.0600
     57 H57        -3.9296    2.9164   48.2604 H       1  ZINC000464139057    0.0700
     58 H58        -2.4674    3.9368   48.2474 H       1  ZINC000464139057    0.0700
     59 H59       -11.0183    1.0574   54.0310 H       1  ZINC000464139057    0.1300
     60 H60       -12.6566   -0.7171   54.4968 H       1  ZINC000464139057    0.1300
     61 H61       -10.9096   -4.4167   55.6655 H       1  ZINC000464139057    0.0800
     62 H62       -11.0930   -2.6751   55.3327 H       1  ZINC000464139057    0.1000
     63 H63       -10.6043   -2.4203   57.8557 H       1  ZINC000464139057    0.0800
     64 H64       -11.7299   -3.1468   59.0276 H       1  ZINC000464139057    0.0700
     65 H65       -10.6353   -4.1853   58.0835 H       1  ZINC000464139057    0.0700
@<TRIPOS>BOND
     1     1     2    1
     2     1    33    1
     3     1    34    1
     4     1    35    1
     5     2     3    1
     6     2    32    1
     7     2     4    1
     8     4     5    1
     9     4    36    1
    10     4    37    1
    11     5     6   am
    12     5    28    1
    13     6     7    2
    14     6     8    1
    15     8    27   ar
    16     8     9   ar
    17     9    10   ar
    18     9    38    1
    19    10    11   ar
    20    10    39    1
    21    11    12    1
    22    11    26   ar
    23    12    13    1
    24    12    40    1
    25    12    41    1
    26    13    14   am
    27    13    42    1
    28    14    15    2
    29    14    16   am
    30    16    17    1
    31    16    43    1
    32    17    18    1
    33    17    44    1
    34    17    45    1
    35    18    19    1
    36    18    46    1
    37    18    47    1
    38    19    25    1
    39    19    20    2
    40    20    21    1
    41    20    48    1
    42    21    22    1
    43    21    49    1
    44    21    50    1
    45    22    23    1
    46    22    51    1
    47    22    52    1
    48    23    24    1
    49    23    53    1
    50    23    54    1
    51    24    25    1
    52    24    55    1
    53    24    56    1
    54    25    57    1
    55    25    58    1
    56    26    27   ar
    57    26    59    1
    58    27    60    1
    59    28    29    1
    60    28    61    1
    61    28    62    1
    62    29    30    1
    63    29    31    1
    64    29    32    1
    65    31    63    1
    66    31    64    1
    67    31    65    1
@<TRIPOS>SUBSTRUCTURE
     1 ZINC000464139057        1 TEMP              0 ****  ****    0 ROOT


##########                                Name:    ZINC000484900616
##########                DOCK_Rotatable_Bonds:                  10
##########                         Heavy_Atoms:                  29
##########                    Molecular_Weight:             415.556
##########                DOCK_Rotatable_Bonds:                  10
##########                       Formal_Charge:        -1.49012e-08
##########                     HBond_Acceptors:                   7
##########                        HBond_Donors:                   1
##########                         Heavy_Atoms:                  29
##########                          Grid_Score:          -39.528481
##########                     Grid_vdw_energy:          -38.737778
##########                      Grid_es_energy:           -0.790703
##########           Internal_energy_repulsive:            9.931347

@<TRIPOS>MOLECULE
ZINC000484900616
 58 60 1 0 0
SMALL
USER_CHARGES


@<TRIPOS>ATOM
      1 C1         -5.0174    2.1813   50.9546 C.3     1  ZINC000484900616   -0.1500
      2 C2         -5.9354    0.9711   50.7712 C.3     1  ZINC000484900616    0.0600
      3 O3         -6.9768    0.9960   51.7827 O.3     1  ZINC000484900616   -0.3400
      4 C4         -7.8538   -0.0277   51.7833 C.2     1  ZINC000484900616    0.5500
      5 O5         -7.7194   -0.9436   50.9956 O.2     1  ZINC000484900616   -0.5000
      6 C6         -8.9736   -0.0364   52.7374 C.2     1  ZINC000484900616    0.0200
      7 C7         -9.8332   -1.0738   52.8599 C.2     1  ZINC000484900616   -0.2400
      8 S8        -10.9824   -0.6980   54.0683 S.3     1  ZINC000484900616    0.2900
      9 C9        -10.2503    0.8207   54.3401 C.2     1  ZINC000484900616    0.0300
     10 C10       -10.7260    1.8343   55.3488 C.3     1  ZINC000484900616    0.1500
     11 H11        -9.9398    2.5603   55.5560 H       1  ZINC000484900616    0.0900
     12 C12       -11.9994    2.5507   54.8340 C.3     1  ZINC000484900616   -0.1200
     13 C13       -12.6534    3.0190   56.1606 C.3     1  ZINC000484900616   -0.1400
     14 C14       -12.3243    1.8689   57.1355 C.3     1  ZINC000484900616    0.0500
     15 N15       -11.1467    1.1611   56.5961 N.3     1  ZINC000484900616   -0.5100
     16 C16       -10.0543    1.1325   57.5777 C.3     1  ZINC000484900616    0.0300
     17 C17        -9.8024   -0.2898   58.0076 C.2     1  ZINC000484900616    0.5200
     18 O18        -9.1148   -1.0175   57.3230 O.2     1  ZINC000484900616   -0.5100
     19 N19       -10.3412   -0.7532   59.1527 N.am    1  ZINC000484900616   -0.7300
     20 C20       -10.0949   -2.1353   59.5714 C.3     1  ZINC000484900616    0.1900
     21 H21        -9.0672   -2.4096   59.3331 H       1  ZINC000484900616    0.1000
     22 C22       -10.3189   -2.2587   61.0800 C.3     1  ZINC000484900616   -0.1600
     23 C23       -11.0417   -3.0563   58.8461 C.ar    1  ZINC000484900616   -0.1000
     24 C24       -12.3457   -2.6619   58.6114 C.ar    1  ZINC000484900616   -0.1100
     25 C25       -13.2143   -3.5068   57.9460 C.ar    1  ZINC000484900616   -0.1100
     26 C26       -12.7788   -4.7458   57.5149 C.ar    1  ZINC000484900616   -0.0800
     27 C27       -13.7257   -5.6671   56.7898 C.3     1  ZINC000484900616   -0.0900
     28 C28       -14.0809   -5.0651   55.4288 C.3     1  ZINC000484900616   -0.1500
     29 C29       -11.4744   -5.1397   57.7482 C.ar    1  ZINC000484900616   -0.1100
     30 C30       -10.6048   -4.2933   58.4103 C.ar    1  ZINC000484900616   -0.1000
     31 N31        -9.2335    0.9772   53.5681 N.2     1  ZINC000484900616   -0.4300
     32 H32        -5.5995    3.0974   50.8543 H       1  ZINC000484900616    0.0700
     33 H33        -4.5630    2.1460   51.9448 H       1  ZINC000484900616    0.0700
     34 H34        -4.2355    2.1627   50.1952 H       1  ZINC000484900616    0.0800
     35 H35        -6.3896    1.0064   49.7810 H       1  ZINC000484900616    0.0700
     36 H36        -5.3533    0.0550   50.8714 H       1  ZINC000484900616    0.0700
     37 H37        -9.7990   -1.9894   52.2881 H       1  ZINC000484900616    0.1900
     38 H38       -11.7409    3.4020   54.2043 H       1  ZINC000484900616    0.0900
     39 H39       -12.6498    1.8565   54.3019 H       1  ZINC000484900616    0.0800
     40 H40       -12.2067    3.9530   56.5017 H       1  ZINC000484900616    0.0700
     41 H41       -13.7314    3.1270   56.0418 H       1  ZINC000484900616    0.0800
     42 H42       -12.0928    2.2729   58.1210 H       1  ZINC000484900616    0.0600
     43 H43       -13.1709    1.1855   57.2019 H       1  ZINC000484900616    0.0900
     44 H44        -9.1500    1.5415   57.1272 H       1  ZINC000484900616    0.1100
     45 H45       -10.3304    1.7309   58.4460 H       1  ZINC000484900616    0.0700
     46 H46       -10.8922   -0.1717   59.6996 H       1  ZINC000484900616    0.4000
     47 H47       -10.1356   -3.2870   61.3916 H       1  ZINC000484900616    0.0700
     48 H48        -9.6339   -1.5926   61.6046 H       1  ZINC000484900616    0.0700
     49 H49       -11.3465   -1.9845   61.3183 H       1  ZINC000484900616    0.0600
     50 H50       -12.6860   -1.6939   58.9483 H       1  ZINC000484900616    0.1200
     51 H51       -14.2333   -3.1989   57.7634 H       1  ZINC000484900616    0.1200
     52 H52       -13.2497   -6.6369   56.6452 H       1  ZINC000484900616    0.0700
     53 H53       -14.6337   -5.7924   57.3798 H       1  ZINC000484900616    0.0700
     54 H54       -14.5570   -4.0953   55.5735 H       1  ZINC000484900616    0.0600
     55 H55       -13.1730   -4.9398   54.8389 H       1  ZINC000484900616    0.0600
     56 H56       -14.7659   -5.7314   54.9045 H       1  ZINC000484900616    0.0600
     57 H57       -11.1340   -6.1076   57.4110 H       1  ZINC000484900616    0.1200
     58 H58        -9.5857   -4.6010   58.5926 H       1  ZINC000484900616    0.1200
@<TRIPOS>BOND
     1     1     2    1
     2     1    32    1
     3     1    33    1
     4     1    34    1
     5     2     3    1
     6     2    35    1
     7     2    36    1
     8     3     4    1
     9     4     5    2
    10     4     6    1
    11     6    31    1
    12     6     7    2
    13     7     8    1
    14     7    37    1
    15     8     9    1
    16     9    10    1
    17     9    31    2
    18    10    11    1
    19    10    15    1
    20    10    12    1
    21    12    13    1
    22    12    38    1
    23    12    39    1
    24    13    14    1
    25    13    40    1
    26    13    41    1
    27    14    15    1
    28    14    42    1
    29    14    43    1
    30    15    16    1
    31    16    17    1
    32    16    44    1
    33    16    45    1
    34    17    18    2
    35    17    19   am
    36    19    20    1
    37    19    46    1
    38    20    21    1
    39    20    22    1
    40    20    23    1
    41    22    47    1
    42    22    48    1
    43    22    49    1
    44    23    30   ar
    45    23    24   ar
    46    24    25   ar
    47    24    50    1
    48    25    26   ar
    49    25    51    1
    50    26    27    1
    51    26    29   ar
    52    27    28    1
    53    27    52    1
    54    27    53    1
    55    28    54    1
    56    28    55    1
    57    28    56    1
    58    29    30   ar
    59    29    57    1
    60    30    58    1
@<TRIPOS>SUBSTRUCTURE
     1 ZINC000484900616        1 TEMP              0 ****  ****    0 ROOT


##########                                Name:    ZINC000428266315
##########                DOCK_Rotatable_Bonds:                  10
##########                         Heavy_Atoms:                  30
##########                    Molecular_Weight:             423.438
##########                DOCK_Rotatable_Bonds:                  10
##########                       Formal_Charge:          0.00999977
##########                     HBond_Acceptors:                  10
##########                        HBond_Donors:                   0
##########                         Heavy_Atoms:                  30
##########                          Grid_Score:          -39.450890
##########                     Grid_vdw_energy:          -40.063320
##########                      Grid_es_energy:            0.612432
##########           Internal_energy_repulsive:           11.115744

@<TRIPOS>MOLECULE
ZINC000428266315
 54 56 1 0 0
SMALL
USER_CHARGES


@<TRIPOS>ATOM
      1 C1         -5.1417    1.1381   50.3263 C.3     1  ZINC000428266315   -0.1500
      2 C2         -5.9855    1.3224   51.5893 C.3     1  ZINC000428266315    0.0600
      3 O3         -6.9539    2.3500   51.3694 O.3     1  ZINC000428266315   -0.3700
      4 C4         -7.8025    2.5987   52.4919 C.3     1  ZINC000428266315    0.1800
      5 H5         -7.1932    2.8579   53.3577 H       1  ZINC000428266315    0.0900
      6 C6         -8.7487    3.7569   52.1692 C.3     1  ZINC000428266315   -0.1700
      7 C7         -8.6080    1.3620   52.7964 C.2     1  ZINC000428266315    0.1700
      8 N8         -9.1186    1.0408   53.9473 N.2     1  ZINC000428266315   -0.3500
      9 O9         -9.7104   -0.0147   53.8644 O.3     1  ZINC000428266315    0.0800
     10 C10        -9.6311   -0.4813   52.6146 C.2     1  ZINC000428266315    0.1900
     11 C11       -10.2317   -1.7622   52.0951 C.3     1  ZINC000428266315    0.1500
     12 N12       -11.5359   -1.9857   52.7331 N.3     1  ZINC000428266315   -0.5300
     13 C13       -12.4772   -0.9088   52.3981 C.3     1  ZINC000428266315    0.0200
     14 C14       -12.0842   -3.2977   52.3648 C.3     1  ZINC000428266315    0.1400
     15 C15       -13.0272   -3.7683   53.4419 C.2     1  ZINC000428266315   -0.2300
     16 C16       -12.6720   -4.2800   54.6432 C.2     1  ZINC000428266315    0.0800
     17 N17       -13.8042   -4.5784   55.3143 N.pl3   1  ZINC000428266315   -0.3700
     18 C18       -13.8827   -5.1551   56.6587 C.3     1  ZINC000428266315    0.1700
     19 C19       -12.7874   -4.5777   57.5177 C.ar    1  ZINC000428266315   -0.0800
     20 C20       -12.9728   -3.3627   58.1502 C.ar    1  ZINC000428266315   -0.1000
     21 C21       -11.9680   -2.8331   58.9381 C.ar    1  ZINC000428266315   -0.0700
     22 C22       -10.7779   -3.5189   59.0940 C.ar    1  ZINC000428266315   -0.1700
     23 C23        -9.6823   -2.9414   59.9526 C.3     1  ZINC000428266315    0.5100
     24 F24        -8.6727   -3.8946   60.1238 F       1  ZINC000428266315   -0.1700
     25 F25        -9.1514   -1.8065   59.3303 F       1  ZINC000428266315   -0.1800
     26 F26       -10.2057   -2.5871   61.2006 F       1  ZINC000428266315   -0.1800
     27 C27       -10.5930   -4.7347   58.4626 C.ar    1  ZINC000428266315   -0.0700
     28 C28       -11.5993   -5.2660   57.6777 C.ar    1  ZINC000428266315   -0.0800
     29 N29       -14.8911   -4.2388   54.4983 N.2     1  ZINC000428266315   -0.2900
     30 C30       -14.4244   -3.7479   53.3790 C.2     1  ZINC000428266315    0.0600
     31 N31        -8.9353    0.3907   51.9255 N.2     1  ZINC000428266315   -0.4600
     32 H32        -4.4030    0.3543   50.4941 H       1  ZINC000428266315    0.0700
     33 H33        -5.7883    0.8563   49.4954 H       1  ZINC000428266315    0.0600
     34 H34        -4.6327    2.0725   50.0899 H       1  ZINC000428266315    0.0600
     35 H35        -6.4945    0.3880   51.8258 H       1  ZINC000428266315    0.0500
     36 H36        -5.3388    1.6043   52.4203 H       1  ZINC000428266315    0.0500
     37 H37        -9.3580    3.4979   51.3033 H       1  ZINC000428266315    0.0700
     38 H38        -9.3960    3.9466   53.0253 H       1  ZINC000428266315    0.0700
     39 H39        -8.1661    4.6515   51.9489 H       1  ZINC000428266315    0.0700
     40 H40       -10.3629   -1.6903   51.0154 H       1  ZINC000428266315    0.0800
     41 H41        -9.5670   -2.5947   52.3256 H       1  ZINC000428266315    0.1200
     42 H42       -12.6182   -0.8725   51.3177 H       1  ZINC000428266315    0.0400
     43 H43       -13.4346   -1.0991   52.8832 H       1  ZINC000428266315    0.0800
     44 H44       -12.0773    0.0441   52.7445 H       1  ZINC000428266315    0.0600
     45 H45       -12.6232   -3.2143   51.4210 H       1  ZINC000428266315    0.0500
     46 H46       -11.2700   -4.0143   52.2562 H       1  ZINC000428266315    0.0900
     47 H47       -11.6631   -4.4240   55.0009 H       1  ZINC000428266315    0.1700
     48 H48       -14.8518   -4.9200   57.0989 H       1  ZINC000428266315    0.1000
     49 H49       -13.7643   -6.2369   56.5974 H       1  ZINC000428266315    0.1100
     50 H50       -13.9026   -2.8269   58.0284 H       1  ZINC000428266315    0.1300
     51 H51       -12.1127   -1.8835   59.4318 H       1  ZINC000428266315    0.1400
     52 H52        -9.6633   -5.2706   58.5846 H       1  ZINC000428266315    0.1400
     53 H53       -11.4548   -6.2159   57.1844 H       1  ZINC000428266315    0.1400
     54 H54       -15.0157   -3.3950   52.5470 H       1  ZINC000428266315    0.1800
@<TRIPOS>BOND
     1     1     2    1
     2     1    32    1
     3     1    33    1
     4     1    34    1
     5     2     3    1
     6     2    35    1
     7     2    36    1
     8     3     4    1
     9     4     5    1
    10     4     6    1
    11     4     7    1
    12     6    37    1
    13     6    38    1
    14     6    39    1
    15     7    31    1
    16     7     8    2
    17     8     9    1
    18     9    10    1
    19    10    11    1
    20    10    31    2
    21    11    12    1
    22    11    40    1
    23    11    41    1
    24    12    13    1
    25    12    14    1
    26    13    42    1
    27    13    43    1
    28    13    44    1
    29    14    15    1
    30    14    45    1
    31    14    46    1
    32    15    30    1
    33    15    16    2
    34    16    17    1
    35    16    47    1
    36    17    18    1
    37    17    29    1
    38    18    19    1
    39    18    48    1
    40    18    49    1
    41    19    28   ar
    42    19    20   ar
    43    20    21   ar
    44    20    50    1
    45    21    22   ar
    46    21    51    1
    47    22    23    1
    48    22    27   ar
    49    23    24    1
    50    23    25    1
    51    23    26    1
    52    27    28   ar
    53    27    52    1
    54    28    53    1
    55    29    30    2
    56    30    54    1
@<TRIPOS>SUBSTRUCTURE
     1 ZINC000428266315        1 TEMP              0 ****  ****    0 ROOT


##########                                Name:    ZINC000474251633
##########                DOCK_Rotatable_Bonds:                   8
##########                         Heavy_Atoms:                  28
##########                    Molecular_Weight:             416.931
##########                DOCK_Rotatable_Bonds:                   8
##########                       Formal_Charge:          0.00999953
##########                     HBond_Acceptors:                   8
##########                        HBond_Donors:                   2
##########                         Heavy_Atoms:                  28
##########                          Grid_Score:          -39.280907
##########                     Grid_vdw_energy:          -38.205353
##########                      Grid_es_energy:           -1.075554
##########           Internal_energy_repulsive:           11.468897

@<TRIPOS>MOLECULE
ZINC000474251633
 49 52 1 0 0
SMALL
USER_CHARGES


@<TRIPOS>ATOM
      1 O1        -11.9188   -1.8080   54.4805 O.2     1  ZINC000474251633   -0.5300
      2 C2        -11.3423   -2.8607   54.3057 C.2     1  ZINC000474251633    0.5100
      3 C3        -11.2446   -3.8616   55.4280 C.3     1  ZINC000474251633    0.1000
      4 N4        -10.9371   -3.1641   56.6791 N.am    1  ZINC000474251633   -0.7100
      5 C5        -11.0102   -3.8220   57.8530 C.2     1  ZINC000474251633    0.5900
      6 O6        -11.3300   -4.9958   57.8737 O.2     1  ZINC000474251633   -0.5000
      7 C7        -10.7036   -3.1224   59.1070 C.2     1  ZINC000474251633   -0.2300
      8 C8        -11.5020   -2.2203   59.6899 C.2     1  ZINC000474251633    0.0400
      9 Cl9       -13.0331   -1.7629   59.0114 Cl      1  ZINC000474251633   -0.0100
     10 C10       -11.0183   -1.6684   60.8886 C.ar    1  ZINC000474251633   -0.0900
     11 C11       -11.6224   -0.7035   61.7288 C.ar    1  ZINC000474251633   -0.0600
     12 C12       -10.9964   -0.2857   62.8611 C.ar    1  ZINC000474251633   -0.1200
     13 C13        -9.7540   -0.7972   63.2144 C.ar    1  ZINC000474251633   -0.0800
     14 C14        -9.1415   -1.7353   62.4186 C.ar    1  ZINC000474251633   -0.0900
     15 C15        -9.7658   -2.1811   61.2491 C.ar    1  ZINC000474251633   -0.1200
     16 S16        -9.2436   -3.3596   60.0510 S.3     1  ZINC000474251633    0.1700
     17 N17       -10.7939   -3.1377   53.1061 N.am    1  ZINC000474251633   -0.7200
     18 C18       -10.8889   -2.1647   52.0151 C.3     1  ZINC000474251633    0.2100
     19 C19        -9.7799   -1.1527   52.1465 C.2     1  ZINC000474251633    0.0500
     20 N20        -9.8490   -0.0188   52.7954 N.2     1  ZINC000474251633   -0.2700
     21 N21        -8.6121    0.6284   52.6784 N.pl3   1  ZINC000474251633   -0.3600
     22 C22        -8.2610    1.9276   53.2575 C.3     1  ZINC000474251633    0.1500
     23 C23        -7.3472    2.7077   52.2900 C.3     1  ZINC000474251633   -0.1400
     24 C24        -8.3188    3.6240   51.5055 C.3     1  ZINC000474251633   -0.1300
     25 C25        -9.3402    4.0474   52.5902 C.3     1  ZINC000474251633   -0.1200
     26 C26        -9.5282    2.7794   53.4483 C.3     1  ZINC000474251633   -0.1400
     27 C27        -7.8012   -0.1561   51.9383 C.2     1  ZINC000474251633    0.0600
     28 C28        -8.4970   -1.2666   51.6011 C.2     1  ZINC000474251633   -0.2600
     29 H29       -12.1939   -4.3878   55.5293 H       1  ZINC000474251633    0.1100
     30 H30       -10.4536   -4.5784   55.2079 H       1  ZINC000474251633    0.1100
     31 H31       -10.6810   -2.2286   56.6625 H       1  ZINC000474251633    0.4100
     32 H32       -12.5879   -0.2955   61.4686 H       1  ZINC000474251633    0.1300
     33 H33       -11.4698    0.4518   63.4924 H       1  ZINC000474251633    0.1400
     34 H34        -9.2681   -0.4563   64.1167 H       1  ZINC000474251633    0.1400
     35 H35        -8.1753   -2.1295   62.6970 H       1  ZINC000474251633    0.1400
     36 H36       -10.3363   -3.9813   52.9652 H       1  ZINC000474251633    0.4100
     37 H37       -10.7986   -2.6806   51.0592 H       1  ZINC000474251633    0.0900
     38 H38       -11.8520   -1.6565   52.0642 H       1  ZINC000474251633    0.0900
     39 H39        -7.7586    1.7861   54.2144 H       1  ZINC000474251633    0.1100
     40 H40        -6.6245    3.3051   52.8461 H       1  ZINC000474251633    0.0900
     41 H41        -6.8368    2.0236   51.6121 H       1  ZINC000474251633    0.0800
     42 H42        -7.7943    4.4931   51.1085 H       1  ZINC000474251633    0.0800
     43 H43        -8.8113    3.0703   50.7062 H       1  ZINC000474251633    0.0700
     44 H44        -8.9395    4.8611   53.1946 H       1  ZINC000474251633    0.0700
     45 H45       -10.2843    4.3409   52.1313 H       1  ZINC000474251633    0.0700
     46 H46       -10.4043    2.2261   53.1101 H       1  ZINC000474251633    0.0700
     47 H47        -9.6404    3.0519   54.4977 H       1  ZINC000474251633    0.0800
     48 H48        -6.7785    0.0614   51.6673 H       1  ZINC000474251633    0.1700
     49 H49        -8.1288   -2.0920   51.0100 H       1  ZINC000474251633    0.1500
@<TRIPOS>BOND
     1     1     2    2
     2     2     3    1
     3     2    17   am
     4     3     4    1
     5     3    29    1
     6     3    30    1
     7     4     5   am
     8     4    31    1
     9     5     6    2
    10     5     7    1
    11     7    16    1
    12     7     8    2
    13     8     9    1
    14     8    10    1
    15    10    15   ar
    16    10    11   ar
    17    11    12   ar
    18    11    32    1
    19    12    13   ar
    20    12    33    1
    21    13    14   ar
    22    13    34    1
    23    14    15   ar
    24    14    35    1
    25    15    16    1
    26    17    18    1
    27    17    36    1
    28    18    19    1
    29    18    37    1
    30    18    38    1
    31    19    28    1
    32    19    20    2
    33    20    21    1
    34    21    22    1
    35    21    27    1
    36    22    26    1
    37    22    23    1
    38    22    39    1
    39    23    24    1
    40    23    40    1
    41    23    41    1
    42    24    25    1
    43    24    42    1
    44    24    43    1
    45    25    26    1
    46    25    44    1
    47    25    45    1
    48    26    46    1
    49    26    47    1
    50    27    28    2
    51    27    48    1
    52    28    49    1
@<TRIPOS>SUBSTRUCTURE
     1 ZINC000474251633        1 TEMP              0 ****  ****    0 ROOT


##########                                Name:    ZINC000552360217
##########                DOCK_Rotatable_Bonds:                  13
##########                         Heavy_Atoms:                  27
##########                    Molecular_Weight:             401.484
##########                DOCK_Rotatable_Bonds:                  13
##########                       Formal_Charge:          -0.0100002
##########                     HBond_Acceptors:                  10
##########                        HBond_Donors:                   3
##########                         Heavy_Atoms:                  27
##########                          Grid_Score:          -39.171970
##########                     Grid_vdw_energy:          -37.048004
##########                      Grid_es_energy:           -2.123965
##########           Internal_energy_repulsive:           16.314703

@<TRIPOS>MOLECULE
ZINC000552360217
 54 54 1 0 0
SMALL
USER_CHARGES


@<TRIPOS>ATOM
      1 C1        -12.2118   -1.4386   53.4123 C.3     1  ZINC000552360217    0.0800
      2 N2        -12.0381   -2.8718   53.1630 N.am    1  ZINC000552360217   -1.0000
      3 C3        -10.8445   -3.3543   52.4641 C.3     1  ZINC000552360217    0.0900
      4 S4        -13.1909   -3.9464   53.6715 S.o2    1  ZINC000552360217    2.7000
      5 O5        -14.4268   -3.4913   53.1379 O.2     1  ZINC000552360217   -0.9500
      6 O6        -12.6676   -5.2439   53.4228 O.2     1  ZINC000552360217   -0.9500
      7 C7        -13.3161   -3.7875   55.4218 C.ar    1  ZINC000552360217   -0.6900
      8 C8        -14.5340   -3.4804   56.0017 C.ar    1  ZINC000552360217    0.0100
      9 C9        -14.6409   -3.3543   57.3756 C.ar    1  ZINC000552360217   -0.1400
     10 C10       -13.5321   -3.5342   58.1762 C.ar    1  ZINC000552360217   -0.0300
     11 C11       -12.3002   -3.8442   57.5975 C.ar    1  ZINC000552360217   -0.1600
     12 C12       -11.1077   -4.0388   58.4495 C.2     1  ZINC000552360217    0.5600
     13 O13       -10.4458   -5.0531   58.3461 O.2     1  ZINC000552360217   -0.5300
     14 N14       -10.7545   -3.0916   59.3408 N.am    1  ZINC000552360217   -0.7100
     15 C15        -9.5718   -3.2836   60.1838 C.3     1  ZINC000552360217    0.1000
     16 C16        -9.6094   -2.3079   61.3317 C.2     1  ZINC000552360217    0.5100
     17 O17        -8.7925   -2.3901   62.2244 O.2     1  ZINC000552360217   -0.5400
     18 N18       -10.5509   -1.3441   61.3665 N.am    1  ZINC000552360217   -0.7200
     19 C19       -10.5864   -0.3946   62.4815 C.3     1  ZINC000552360217    0.1400
     20 C20       -11.8711    0.4329   62.4060 C.3     1  ZINC000552360217    0.1000
     21 C21       -11.8182    1.3460   61.1796 C.3     1  ZINC000552360217   -0.1800
     22 C22       -13.0753   -0.5041   62.2928 C.3     1  ZINC000552360217   -0.1800
     23 O23       -11.9956    1.2280   63.5869 O.3     1  ZINC000552360217   -0.3700
     24 C24       -10.8602    2.0533   63.8543 C.3     1  ZINC000552360217    0.0600
     25 C25       -10.1886    1.5929   65.1496 C.3     1  ZINC000552360217    0.0800
     26 O26       -11.1409    1.6178   66.2147 O.3     1  ZINC000552360217   -0.5700
     27 C27       -12.2003   -3.9751   56.2116 C.ar    1  ZINC000552360217    0.0400
     28 H28       -12.7424   -0.9858   52.5746 H       1  ZINC000552360217    0.0600
     29 H29       -12.7876   -1.2960   54.3268 H       1  ZINC000552360217    0.0900
     30 H30       -11.2348   -0.9676   53.5209 H       1  ZINC000552360217    0.0800
     31 H31       -10.2057   -2.5085   52.2094 H       1  ZINC000552360217    0.0800
     32 H32       -10.2976   -4.0409   53.1102 H       1  ZINC000552360217    0.0700
     33 H33       -11.1419   -3.8724   51.5523 H       1  ZINC000552360217    0.0600
     34 H34       -15.4051   -3.3383   55.3793 H       1  ZINC000552360217    0.1500
     35 H35       -15.5946   -3.1141   57.8220 H       1  ZINC000552360217    0.1400
     36 H36       -13.6169   -3.4352   59.2483 H       1  ZINC000552360217    0.1400
     37 H37       -11.2834   -2.2827   59.4243 H       1  ZINC000552360217    0.4100
     38 H38        -9.5643   -4.3019   60.5728 H       1  ZINC000552360217    0.1000
     39 H39        -8.6724   -3.1140   59.5920 H       1  ZINC000552360217    0.1000
     40 H40       -11.2050   -1.2792   60.6531 H       1  ZINC000552360217    0.4100
     41 H41       -10.5606   -0.9405   63.4246 H       1  ZINC000552360217    0.0800
     42 H42        -9.7232    0.2684   62.4217 H       1  ZINC000552360217    0.0900
     43 H43       -11.7233    0.7395   60.2789 H       1  ZINC000552360217    0.0700
     44 H44       -12.7335    1.9356   61.1259 H       1  ZINC000552360217    0.0700
     45 H45       -10.9603    2.0136   61.2602 H       1  ZINC000552360217    0.0700
     46 H46       -13.1130   -1.1546   63.1666 H       1  ZINC000552360217    0.0600
     47 H47       -13.9906    0.0855   62.2390 H       1  ZINC000552360217    0.0700
     48 H48       -12.9803   -1.1105   61.3921 H       1  ZINC000552360217    0.0700
     49 H49       -10.1515    1.9748   63.0297 H       1  ZINC000552360217    0.0600
     50 H50       -11.1811    3.0897   63.9600 H       1  ZINC000552360217    0.0700
     51 H51        -9.8119    0.5780   65.0226 H       1  ZINC000552360217    0.0600
     52 H52        -9.3605    2.2608   65.3868 H       1  ZINC000552360217    0.0500
     53 H53       -10.7847    1.3332   67.0675 H       1  ZINC000552360217    0.3800
     54 H54       -11.2501   -4.2148   55.7578 H       1  ZINC000552360217    0.1500
@<TRIPOS>BOND
     1     1     2    1
     2     1    28    1
     3     1    29    1
     4     1    30    1
     5     2     3    1
     6     2     4   am
     7     3    31    1
     8     3    32    1
     9     3    33    1
    10     4     5    2
    11     4     6    2
    12     4     7    1
    13     7    27   ar
    14     7     8   ar
    15     8     9   ar
    16     8    34    1
    17     9    10   ar
    18     9    35    1
    19    10    11   ar
    20    10    36    1
    21    11    12    1
    22    11    27   ar
    23    12    13    2
    24    12    14   am
    25    14    15    1
    26    14    37    1
    27    15    16    1
    28    15    38    1
    29    15    39    1
    30    16    17    2
    31    16    18   am
    32    18    19    1
    33    18    40    1
    34    19    20    1
    35    19    41    1
    36    19    42    1
    37    20    21    1
    38    20    22    1
    39    20    23    1
    40    21    43    1
    41    21    44    1
    42    21    45    1
    43    22    46    1
    44    22    47    1
    45    22    48    1
    46    23    24    1
    47    24    25    1
    48    24    49    1
    49    24    50    1
    50    25    26    1
    51    25    51    1
    52    25    52    1
    53    26    53    1
    54    27    54    1
@<TRIPOS>SUBSTRUCTURE
     1 ZINC000552360217        1 TEMP              0 ****  ****    0 ROOT


##########                                Name:    ZINC000465642058
##########                DOCK_Rotatable_Bonds:                  10
##########                         Heavy_Atoms:                  31
##########                    Molecular_Weight:             420.511
##########                DOCK_Rotatable_Bonds:                  10
##########                       Formal_Charge:          1.2666e-07
##########                     HBond_Acceptors:                   7
##########                        HBond_Donors:                   2
##########                         Heavy_Atoms:                  31
##########                          Grid_Score:          -39.169781
##########                     Grid_vdw_energy:          -37.573730
##########                      Grid_es_energy:           -1.596048
##########           Internal_energy_repulsive:           15.923634

@<TRIPOS>MOLECULE
ZINC000465642058
 59 62 1 0 0
SMALL
USER_CHARGES


@<TRIPOS>ATOM
      1 C1         -9.8150   -4.5146   59.2028 C.3     1  ZINC000465642058   -0.1500
      2 C2        -10.3052   -3.5603   60.2937 C.3     1  ZINC000465642058    0.0500
      3 O3         -9.7642   -2.2576   60.0652 O.3     1  ZINC000465642058   -0.3000
      4 C4        -10.0648   -1.2955   60.9781 C.ar    1  ZINC000465642058    0.1200
      5 C5         -9.3713   -1.2320   62.1785 C.ar    1  ZINC000465642058   -0.1600
      6 C6         -9.6788   -0.2546   63.0990 C.ar    1  ZINC000465642058   -0.1300
      7 C7        -10.6742    0.6785   62.8410 C.ar    1  ZINC000465642058    0.0700
      8 C8        -11.3699    0.6068   61.6366 C.ar    1  ZINC000465642058   -0.0700
      9 C9        -11.0621   -0.3689   60.7119 C.ar    1  ZINC000465642058   -0.1100
     10 C10       -11.8212   -0.4364   59.4118 C.3     1  ZINC000465642058    0.1900
     11 N11       -10.9069   -0.1721   58.2981 N.am    1  ZINC000465642058   -0.7300
     12 C12       -11.3920   -0.0153   57.0506 C.2     1  ZINC000465642058    0.7100
     13 O13       -12.5884   -0.0947   56.8491 O.2     1  ZINC000465642058   -0.5900
     14 N14       -10.5509    0.2295   56.0263 N.am    1  ZINC000465642058   -0.6200
     15 C15        -9.1095    0.3270   56.2693 C.3     1  ZINC000465642058    0.1900
     16 C16        -8.7645    1.7334   56.6865 C.2     1  ZINC000465642058    0.0500
     17 N17        -8.8394    2.2135   57.9013 N.2     1  ZINC000465642058   -0.2700
     18 N18        -8.4327    3.5537   57.8681 N.pl3   1  ZINC000465642058   -0.4700
     19 C19        -8.1122    3.8590   56.5933 C.2     1  ZINC000465642058    0.0600
     20 C20        -8.3031    2.7492   55.8429 C.2     1  ZINC000465642058   -0.2600
     21 C21       -11.0781    0.3981   54.6698 C.3     1  ZINC000465642058    0.1700
     22 C22       -11.1637   -0.9458   53.9934 C.ar    1  ZINC000465642058   -0.1100
     23 C23       -11.2461   -2.0978   54.7530 C.ar    1  ZINC000465642058   -0.0900
     24 C24       -11.3246   -3.3306   54.1325 C.ar    1  ZINC000465642058   -0.1200
     25 C25       -11.3210   -3.4113   52.7526 C.ar    1  ZINC000465642058   -0.1200
     26 C26       -11.2395   -2.2593   51.9930 C.ar    1  ZINC000465642058   -0.1300
     27 C27       -11.1654   -1.0262   52.6134 C.ar    1  ZINC000465642058   -0.1100
     28 O28       -10.7986    1.5636   63.8692 O.3     1  ZINC000465642058   -0.3000
     29 C29       -10.2018    1.0028   65.0509 C.3     1  ZINC000465642058    0.0800
     30 H30       -10.9377    0.4402   65.6254 H       1  ZINC000465642058    0.0900
     31 C31        -9.5685    2.0987   65.9106 C.3     1  ZINC000465642058   -0.1500
     32 C32        -9.1200    0.0598   64.4734 C.3     1  ZINC000465642058   -0.1100
     33 H33        -8.7263   -4.5641   59.2256 H       1  ZINC000465642058    0.0700
     34 H34       -10.2276   -5.5082   59.3770 H       1  ZINC000465642058    0.0800
     35 H35       -10.1418   -4.1512   58.2285 H       1  ZINC000465642058    0.0700
     36 H36       -11.3938   -3.5108   60.2708 H       1  ZINC000465642058    0.0600
     37 H37        -9.9784   -3.9237   61.2680 H       1  ZINC000465642058    0.0600
     38 H38        -8.5914   -1.9483   62.3908 H       1  ZINC000465642058    0.1300
     39 H39       -12.1513    1.3215   61.4240 H       1  ZINC000465642058    0.1400
     40 H40       -12.2568   -1.4289   59.2966 H       1  ZINC000465642058    0.0700
     41 H41       -12.6150    0.3106   59.4154 H       1  ZINC000465642058    0.0800
     42 H42        -9.9522   -0.1099   58.4587 H       1  ZINC000465642058    0.4000
     43 H43        -8.8269   -0.3665   57.0613 H       1  ZINC000465642058    0.1000
     44 H44        -8.5694    0.0759   55.3565 H       1  ZINC000465642058    0.0900
     45 H45        -8.3893    4.1557   58.6273 H       1  ZINC000465642058    0.4400
     46 H46        -7.7619    4.8164   56.2366 H       1  ZINC000465642058    0.1800
     47 H47        -8.1351    2.6647   54.7794 H       1  ZINC000465642058    0.1500
     48 H48       -12.0715    0.8442   54.7189 H       1  ZINC000465642058    0.0900
     49 H49       -10.4150    1.0498   54.1007 H       1  ZINC000465642058    0.0900
     50 H50       -11.2489   -2.0348   55.8311 H       1  ZINC000465642058    0.1300
     51 H51       -11.3882   -4.2307   54.7260 H       1  ZINC000465642058    0.1200
     52 H52       -11.3817   -4.3745   52.2678 H       1  ZINC000465642058    0.1200
     53 H53       -11.2364   -2.3223   50.9148 H       1  ZINC000465642058    0.1200
     54 H54       -11.1017   -0.1261   52.0201 H       1  ZINC000465642058    0.1200
     55 H55       -10.3389    2.8002   66.2304 H       1  ZINC000465642058    0.0700
     56 H56        -9.1007    1.6486   66.7862 H       1  ZINC000465642058    0.0800
     57 H57        -8.8147    2.6277   65.3274 H       1  ZINC000465642058    0.0700
     58 H58        -9.0312   -0.8453   65.0742 H       1  ZINC000465642058    0.0900
     59 H59        -8.1598    0.5698   64.3961 H       1  ZINC000465642058    0.1000
@<TRIPOS>BOND
     1     1     2    1
     2     1    33    1
     3     1    34    1
     4     1    35    1
     5     2     3    1
     6     2    36    1
     7     2    37    1
     8     3     4    1
     9     4     9   ar
    10     4     5   ar
    11     5     6   ar
    12     5    38    1
    13     6    32    1
    14     6     7   ar
    15     7     8   ar
    16     7    28    1
    17     8     9   ar
    18     8    39    1
    19     9    10    1
    20    10    11    1
    21    10    40    1
    22    10    41    1
    23    11    12   am
    24    11    42    1
    25    12    13    2
    26    12    14   am
    27    14    15    1
    28    14    21    1
    29    15    16    1
    30    15    43    1
    31    15    44    1
    32    16    20    1
    33    16    17    2
    34    17    18    1
    35    18    19    1
    36    18    45    1
    37    19    20    2
    38    19    46    1
    39    20    47    1
    40    21    22    1
    41    21    48    1
    42    21    49    1
    43    22    27   ar
    44    22    23   ar
    45    23    24   ar
    46    23    50    1
    47    24    25   ar
    48    24    51    1
    49    25    26   ar
    50    25    52    1
    51    26    27   ar
    52    26    53    1
    53    27    54    1
    54    28    29    1
    55    29    30    1
    56    29    31    1
    57    29    32    1
    58    31    55    1
    59    31    56    1
    60    31    57    1
    61    32    58    1
    62    32    59    1
@<TRIPOS>SUBSTRUCTURE
     1 ZINC000465642058        1 TEMP              0 ****  ****    0 ROOT


##########                                Name:    ZINC000114394234
##########                DOCK_Rotatable_Bonds:                   9
##########                         Heavy_Atoms:                  27
##########                    Molecular_Weight:             365.392
##########                DOCK_Rotatable_Bonds:                   9
##########                       Formal_Charge:           0.0300002
##########                     HBond_Acceptors:                   8
##########                        HBond_Donors:                   3
##########                         Heavy_Atoms:                  27
##########                          Grid_Score:          -39.149170
##########                     Grid_vdw_energy:          -37.559433
##########                      Grid_es_energy:           -1.589738
##########           Internal_energy_repulsive:            8.112221

@<TRIPOS>MOLECULE
ZINC000114394234
 46 48 1 0 0
SMALL
USER_CHARGES


@<TRIPOS>ATOM
      1 C1        -14.9501   -3.5170   55.3995 C.3     1  ZINC000114394234   -0.1600
      2 C2        -13.5217   -4.0048   55.1497 C.3     1  ZINC000114394234    0.1300
      3 H3        -13.5495   -5.0072   54.7224 H       1  ZINC000114394234    0.1200
      4 N4        -12.8510   -3.0950   54.2175 N.am    1  ZINC000114394234   -0.7100
      5 C5        -12.2390   -3.5845   53.1210 C.2     1  ZINC000114394234    0.5200
      6 O6        -12.2420   -4.7783   52.9069 O.2     1  ZINC000114394234   -0.5100
      7 C7        -11.5507   -2.6486   52.1613 C.3     1  ZINC000114394234    0.0400
      8 O8        -10.1497   -2.6243   52.4416 O.3     1  ZINC000114394234   -0.2900
      9 C9         -9.5376   -1.4110   52.4228 C.ar    1  ZINC000114394234    0.1300
     10 C10        -9.9326   -0.4198   53.3094 C.ar    1  ZINC000114394234   -0.2100
     11 C11        -9.3085    0.8126   53.2886 C.ar    1  ZINC000114394234   -0.0800
     12 C12        -8.2913    1.0585   52.3849 C.ar    1  ZINC000114394234   -0.1600
     13 C13        -7.8962    0.0723   51.5000 C.ar    1  ZINC000114394234   -0.0800
     14 C14        -8.5129   -1.1637   51.5209 C.ar    1  ZINC000114394234   -0.1500
     15 C15       -12.7661   -4.0352   56.4532 C.2     1  ZINC000114394234    0.5100
     16 O16       -13.0310   -4.8741   57.2883 O.2     1  ZINC000114394234   -0.5100
     17 N17       -11.7961   -3.1303   56.6912 N.am    1  ZINC000114394234   -0.6700
     18 C18       -11.0945   -3.1586   57.9016 C.ar    1  ZINC000114394234    0.1300
     19 C19       -10.3723   -4.2901   58.2598 C.ar    1  ZINC000114394234   -0.1200
     20 C20        -9.6780   -4.3217   59.4545 C.ar    1  ZINC000114394234   -0.1000
     21 C21        -9.6987   -3.2297   60.2987 C.ar    1  ZINC000114394234   -0.0900
     22 C22       -10.4211   -2.0905   59.9476 C.ar    1  ZINC000114394234    0.0000
     23 C23       -10.4449   -0.9158   60.8542 C.2     1  ZINC000114394234    0.2700
     24 N24        -9.9275   -0.8694   62.0623 N.2     1  ZINC000114394234   -0.3000
     25 N25       -10.1747    0.4210   62.5582 N.pl3   1  ZINC000114394234   -0.4800
     26 C26       -10.8400    1.0807   61.5929 C.2     1  ZINC000114394234    0.2700
     27 N27       -10.9919    0.2750   60.5753 N.2     1  ZINC000114394234   -0.5300
     28 C28       -11.1151   -2.0551   58.7415 C.ar    1  ZINC000114394234   -0.0800
     29 H29       -14.9224   -2.5147   55.8268 H       1  ZINC000114394234    0.0700
     30 H30       -15.4967   -3.4951   54.4566 H       1  ZINC000114394234    0.0800
     31 H31       -15.4491   -4.1939   56.0930 H       1  ZINC000114394234    0.0800
     32 H32       -12.8476   -2.1404   54.3895 H       1  ZINC000114394234    0.4100
     33 H33       -11.7109   -2.9933   51.1397 H       1  ZINC000114394234    0.1000
     34 H34       -11.9613   -1.6453   52.2746 H       1  ZINC000114394234    0.1000
     35 H35       -10.7276   -0.6111   54.0150 H       1  ZINC000114394234    0.1300
     36 H36        -9.6157    1.5845   53.9785 H       1  ZINC000114394234    0.1300
     37 H37        -7.8049    2.0226   52.3700 H       1  ZINC000114394234    0.1300
     38 H38        -7.1017    0.2670   50.7948 H       1  ZINC000114394234    0.1300
     39 H39        -8.2038   -1.9337   50.8295 H       1  ZINC000114394234    0.1300
     40 H40       -11.5842   -2.4595   56.0233 H       1  ZINC000114394234    0.4200
     41 H41       -10.3534   -5.1473   57.6031 H       1  ZINC000114394234    0.1300
     42 H42        -9.1180   -5.2035   59.7286 H       1  ZINC000114394234    0.1400
     43 H43        -9.1554   -3.2581   61.2316 H       1  ZINC000114394234    0.1400
     44 H44        -9.9167    0.7682   63.4264 H       1  ZINC000114394234    0.4400
     45 H45       -11.1851    2.1027   61.6476 H       1  ZINC000114394234    0.2300
     46 H46       -11.6762   -1.1747   58.4651 H       1  ZINC000114394234    0.1500
@<TRIPOS>BOND
     1     1     2    1
     2     1    29    1
     3     1    30    1
     4     1    31    1
     5     2     3    1
     6     2     4    1
     7     2    15    1
     8     4     5   am
     9     4    32    1
    10     5     6    2
    11     5     7    1
    12     7     8    1
    13     7    33    1
    14     7    34    1
    15     8     9    1
    16     9    14   ar
    17     9    10   ar
    18    10    11   ar
    19    10    35    1
    20    11    12   ar
    21    11    36    1
    22    12    13   ar
    23    12    37    1
    24    13    14   ar
    25    13    38    1
    26    14    39    1
    27    15    16    2
    28    15    17   am
    29    17    18    1
    30    17    40    1
    31    18    28   ar
    32    18    19   ar
    33    19    20   ar
    34    19    41    1
    35    20    21   ar
    36    20    42    1
    37    21    22   ar
    38    21    43    1
    39    22    23    1
    40    22    28   ar
    41    23    27    1
    42    23    24    2
    43    24    25    1
    44    25    26    1
    45    25    44    1
    46    26    27    2
    47    26    45    1
    48    28    46    1
@<TRIPOS>SUBSTRUCTURE
     1 ZINC000114394234        1 TEMP              0 ****  ****    0 ROOT


##########                                Name:    ZINC000772422035
##########                DOCK_Rotatable_Bonds:                  10
##########                         Heavy_Atoms:                  25
##########                    Molecular_Weight:             348.399
##########                DOCK_Rotatable_Bonds:                  10
##########                       Formal_Charge:          0.00999987
##########                     HBond_Acceptors:                   7
##########                        HBond_Donors:                   0
##########                         Heavy_Atoms:                  25
##########                          Grid_Score:          -39.120449
##########                     Grid_vdw_energy:          -38.140854
##########                      Grid_es_energy:           -0.979595
##########           Internal_energy_repulsive:           20.903648

@<TRIPOS>MOLECULE
ZINC000772422035
 49 50 1 0 0
SMALL
USER_CHARGES


@<TRIPOS>ATOM
      1 C1         -6.3651    1.6677   51.2181 C.3     1  ZINC000772422035    0.0300
      2 O2         -5.9525    0.3089   51.0584 O.3     1  ZINC000772422035   -0.3900
      3 C3         -6.9953   -0.5686   50.6291 C.3     1  ZINC000772422035    0.0600
      4 C4         -8.1436   -0.5287   51.6394 C.3     1  ZINC000772422035    0.0700
      5 O5         -8.9742   -1.6779   51.4621 O.3     1  ZINC000772422035   -0.3000
      6 C6        -10.0280   -1.8123   52.3060 C.ar    1  ZINC000772422035    0.3300
      7 C7        -10.4071   -0.7441   53.1084 C.ar    1  ZINC000772422035   -0.1700
      8 C8        -11.4841   -0.8941   53.9649 C.ar    1  ZINC000772422035   -0.0200
      9 C9        -11.9275    0.2409   54.8517 C.3     1  ZINC000772422035    0.1100
     10 O10       -11.8709   -0.1795   56.2404 O.3     1  ZINC000772422035   -0.3500
     11 C11       -10.6631   -0.1872   56.8260 C.2     1  ZINC000772422035    0.4700
     12 O12        -9.6769    0.0778   56.1802 O.2     1  ZINC000772422035   -0.5000
     13 C13       -10.5372   -0.5264   58.2889 C.3     1  ZINC000772422035   -0.1100
     14 C14       -11.4914   -1.6727   58.6306 C.3     1  ZINC000772422035    0.0000
     15 H15       -11.9964   -2.0073   57.7244 H       1  ZINC000772422035    0.1000
     16 C16       -12.5300   -1.1871   59.6437 C.3     1  ZINC000772422035   -0.1500
     17 C17       -10.7098   -2.8175   59.2219 C.2     1  ZINC000772422035   -0.2000
     18 C18       -10.0034   -2.8363   60.3775 C.2     1  ZINC000772422035   -0.0200
     19 C19        -9.8348   -1.6979   61.3504 C.3     1  ZINC000772422035   -0.0800
     20 O20        -9.4839   -4.0673   60.4847 O.3     1  ZINC000772422035    0.1000
     21 N21        -9.7945   -4.7641   59.5465 N.2     1  ZINC000772422035   -0.3600
     22 C22       -10.5493   -4.1224   58.7020 C.2     1  ZINC000772422035    0.0300
     23 C23       -11.1290   -4.6608   57.4194 C.3     1  ZINC000772422035   -0.0800
     24 C24       -12.1465   -2.1134   53.9882 C.ar    1  ZINC000772422035   -0.1900
     25 C25       -11.7147   -3.1326   53.1625 C.ar    1  ZINC000772422035    0.1400
     26 N26       -10.6881   -2.9577   52.3525 N.ar    1  ZINC000772422035   -0.5300
     27 H27        -5.5169    2.2690   51.5456 H       1  ZINC000772422035    0.0900
     28 H28        -6.7351    2.0493   50.2665 H       1  ZINC000772422035    0.0400
     29 H29        -7.1581    1.7214   51.9642 H       1  ZINC000772422035    0.0400
     30 H30        -7.3595   -0.2498   49.6524 H       1  ZINC000772422035    0.0600
     31 H31        -6.6086   -1.5853   50.5585 H       1  ZINC000772422035    0.0700
     32 H32        -7.7375   -0.5265   52.6511 H       1  ZINC000772422035    0.0800
     33 H33        -8.7340    0.3741   51.4830 H       1  ZINC000772422035    0.0800
     34 H34        -9.8686    0.1911   53.0650 H       1  ZINC000772422035    0.1400
     35 H35       -11.2684    1.0962   54.7039 H       1  ZINC000772422035    0.0900
     36 H36       -12.9497    0.5218   54.5985 H       1  ZINC000772422035    0.0900
     37 H37        -9.5128   -0.8298   58.5047 H       1  ZINC000772422035    0.1100
     38 H38       -10.7910    0.3482   58.8879 H       1  ZINC000772422035    0.1100
     39 H39       -12.0225   -0.7359   60.4963 H       1  ZINC000772422035    0.0600
     40 H40       -13.1779   -0.4474   59.1734 H       1  ZINC000772422035    0.0800
     41 H41       -13.1293   -2.0319   59.9829 H       1  ZINC000772422035    0.0600
     42 H42       -10.6820   -1.6775   62.0360 H       1  ZINC000772422035    0.0900
     43 H43        -8.9132   -1.8366   61.9156 H       1  ZINC000772422035    0.0900
     44 H44        -9.7873   -0.7563   60.8033 H       1  ZINC000772422035    0.0900
     45 H45       -12.1367   -5.0326   57.6041 H       1  ZINC000772422035    0.0800
     46 H46       -11.1659   -3.8653   56.6752 H       1  ZINC000772422035    0.0800
     47 H47       -10.5035   -5.4741   57.0512 H       1  ZINC000772422035    0.0800
     48 H48       -12.9904   -2.2638   54.6452 H       1  ZINC000772422035    0.1400
     49 H49       -12.2268   -4.0834   53.1766 H       1  ZINC000772422035    0.1700
@<TRIPOS>BOND
     1     1     2    1
     2     1    27    1
     3     1    28    1
     4     1    29    1
     5     2     3    1
     6     3     4    1
     7     3    30    1
     8     3    31    1
     9     4     5    1
    10     4    32    1
    11     4    33    1
    12     5     6    1
    13     6    26   ar
    14     6     7   ar
    15     7     8   ar
    16     7    34    1
    17     8     9    1
    18     8    24   ar
    19     9    10    1
    20     9    35    1
    21     9    36    1
    22    10    11    1
    23    11    12    2
    24    11    13    1
    25    13    14    1
    26    13    37    1
    27    13    38    1
    28    14    15    1
    29    14    16    1
    30    14    17    1
    31    16    39    1
    32    16    40    1
    33    16    41    1
    34    17    22    1
    35    17    18    2
    36    18    19    1
    37    18    20    1
    38    19    42    1
    39    19    43    1
    40    19    44    1
    41    20    21    1
    42    21    22    2
    43    22    23    1
    44    23    45    1
    45    23    46    1
    46    23    47    1
    47    24    25   ar
    48    24    48    1
    49    25    26   ar
    50    25    49    1
@<TRIPOS>SUBSTRUCTURE
     1 ZINC000772422035        1 TEMP              0 ****  ****    0 ROOT


##########                                Name:    ZINC000482540246
##########                DOCK_Rotatable_Bonds:                  10
##########                         Heavy_Atoms:                  30
##########                    Molecular_Weight:              409.46
##########                DOCK_Rotatable_Bonds:                  10
##########                       Formal_Charge:         2.83122e-07
##########                     HBond_Acceptors:                   7
##########                        HBond_Donors:                   2
##########                         Heavy_Atoms:                  30
##########                          Grid_Score:          -39.096100
##########                     Grid_vdw_energy:          -38.258617
##########                      Grid_es_energy:           -0.837482
##########           Internal_energy_repulsive:           21.216753

@<TRIPOS>MOLECULE
ZINC000482540246
 54 56 1 0 0
SMALL
USER_CHARGES


@<TRIPOS>ATOM
      1 C1         -6.8258    0.4451   50.8020 C.3     1  ZINC000482540246    0.0400
      2 O2         -7.6447   -0.7260   50.7997 O.3     1  ZINC000482540246   -0.3100
      3 C3         -8.5744   -0.8293   51.7825 C.ar    1  ZINC000482540246    0.3300
      4 C4         -8.6018    0.1102   52.8048 C.ar    1  ZINC000482540246   -0.1800
      5 C5         -9.5553   -0.0065   53.8014 C.ar    1  ZINC000482540246   -0.0100
      6 C6         -9.6189    0.9926   54.9279 C.3     1  ZINC000482540246    0.2000
      7 H7        -10.6480    1.3265   55.0597 H       1  ZINC000482540246    0.1000
      8 C8         -8.7317    2.1938   54.5950 C.3     1  ZINC000482540246   -0.1600
      9 N9         -9.1469    0.3647   56.1645 N.am    1  ZINC000482540246   -0.7400
     10 C10       -10.0347   -0.1083   57.0615 C.2     1  ZINC000482540246    0.7100
     11 O11       -11.2274   -0.0124   56.8451 O.2     1  ZINC000482540246   -0.5800
     12 N12        -9.6006   -0.6874   58.1985 N.am    1  ZINC000482540246   -0.7400
     13 C13       -10.5656   -1.2030   59.1727 C.3     1  ZINC000482540246    0.2100
     14 H14       -11.3325   -0.4509   59.3576 H       1  ZINC000482540246    0.1200
     15 C15        -9.8441   -1.5284   60.4821 C.3     1  ZINC000482540246    0.0500
     16 O16       -10.8054   -1.7035   61.5249 O.3     1  ZINC000482540246   -0.3000
     17 C17       -10.6953   -0.8902   62.6087 C.ar    1  ZINC000482540246    0.1000
     18 C18        -9.5659   -0.9504   63.4102 C.ar    1  ZINC000482540246   -0.1800
     19 C19        -9.4557   -0.1222   64.5113 C.ar    1  ZINC000482540246   -0.0900
     20 C20       -10.4701    0.7662   64.8147 C.ar    1  ZINC000482540246   -0.1300
     21 C21       -11.5989    0.8293   64.0179 C.ar    1  ZINC000482540246   -0.1200
     22 C22       -11.7119    0.0072   62.9118 C.ar    1  ZINC000482540246    0.0700
     23 F23       -12.8144    0.0685   62.1332 F       1  ZINC000482540246   -0.1300
     24 C24       -11.2086   -2.4531   58.6295 C.ar    1  ZINC000482540246   -0.1000
     25 C25       -10.4212   -3.5090   58.2099 C.ar    1  ZINC000482540246   -0.0800
     26 C26       -11.0111   -4.6556   57.7116 C.ar    1  ZINC000482540246   -0.1200
     27 C27       -12.3882   -4.7465   57.6333 C.ar    1  ZINC000482540246   -0.1200
     28 C28       -13.1755   -3.6910   58.0536 C.ar    1  ZINC000482540246   -0.1200
     29 C29       -12.5859   -2.5459   58.5560 C.ar    1  ZINC000482540246   -0.1000
     30 C30       -10.4516   -1.0642   53.7393 C.ar    1  ZINC000482540246   -0.2100
     31 C31       -10.3661   -1.9617   52.6933 C.ar    1  ZINC000482540246    0.1500
     32 N32        -9.4494   -1.8210   51.7549 N.ar    1  ZINC000482540246   -0.5400
     33 H33        -6.1273    0.4017   49.9664 H       1  ZINC000482540246    0.1000
     34 H34        -7.4558    1.3292   50.7033 H       1  ZINC000482540246    0.0600
     35 H35        -6.2697    0.4979   51.7380 H       1  ZINC000482540246    0.0600
     36 H36        -7.8885    0.9210   52.8222 H       1  ZINC000482540246    0.1500
     37 H37        -7.7025    1.8598   54.4631 H       1  ZINC000482540246    0.0600
     38 H38        -9.0829    2.6609   53.6749 H       1  ZINC000482540246    0.0700
     39 H39        -8.7777    2.9163   55.4098 H       1  ZINC000482540246    0.0700
     40 H40        -8.1956    0.2893   56.3377 H       1  ZINC000482540246    0.4000
     41 H41        -8.6492   -0.7628   58.3717 H       1  ZINC000482540246    0.4000
     42 H42        -9.2680   -2.4458   60.3611 H       1  ZINC000482540246    0.0800
     43 H43        -9.1730   -0.7093   60.7404 H       1  ZINC000482540246    0.0800
     44 H44        -8.7726   -1.6444   63.1746 H       1  ZINC000482540246    0.1400
     45 H45        -8.5758   -0.1696   65.1358 H       1  ZINC000482540246    0.1300
     46 H46       -10.3813    1.4121   65.6757 H       1  ZINC000482540246    0.1400
     47 H47       -12.3903    1.5241   64.2573 H       1  ZINC000482540246    0.1400
     48 H48        -9.3453   -3.4380   58.2711 H       1  ZINC000482540246    0.1200
     49 H49       -10.3959   -5.4803   57.3831 H       1  ZINC000482540246    0.1200
     50 H50       -12.8489   -5.6421   57.2433 H       1  ZINC000482540246    0.1200
     51 H51       -14.2514   -3.7617   57.9922 H       1  ZINC000482540246    0.1200
     52 H52       -13.2010   -1.7213   58.8844 H       1  ZINC000482540246    0.1200
     53 H53       -11.2077   -1.1844   54.5011 H       1  ZINC000482540246    0.1400
     54 H54       -11.0612   -2.7865   52.6402 H       1  ZINC000482540246    0.1600
@<TRIPOS>BOND
     1     1     2    1
     2     1    33    1
     3     1    34    1
     4     1    35    1
     5     2     3    1
     6     3    32   ar
     7     3     4   ar
     8     4     5   ar
     9     4    36    1
    10     5     6    1
    11     5    30   ar
    12     6     7    1
    13     6     8    1
    14     6     9    1
    15     8    37    1
    16     8    38    1
    17     8    39    1
    18     9    10   am
    19     9    40    1
    20    10    11    2
    21    10    12   am
    22    12    13    1
    23    12    41    1
    24    13    14    1
    25    13    15    1
    26    13    24    1
    27    15    16    1
    28    15    42    1
    29    15    43    1
    30    16    17    1
    31    17    22   ar
    32    17    18   ar
    33    18    19   ar
    34    18    44    1
    35    19    20   ar
    36    19    45    1
    37    20    21   ar
    38    20    46    1
    39    21    22   ar
    40    21    47    1
    41    22    23    1
    42    24    29   ar
    43    24    25   ar
    44    25    26   ar
    45    25    48    1
    46    26    27   ar
    47    26    49    1
    48    27    28   ar
    49    27    50    1
    50    28    29   ar
    51    28    51    1
    52    29    52    1
    53    30    31   ar
    54    30    53    1
    55    31    32   ar
    56    31    54    1
@<TRIPOS>SUBSTRUCTURE
     1 ZINC000482540246        1 TEMP              0 ****  ****    0 ROOT


##########                                Name:    ZINC000918875053
##########                DOCK_Rotatable_Bonds:                   6
##########                         Heavy_Atoms:                  26
##########                    Molecular_Weight:             359.357
##########                DOCK_Rotatable_Bonds:                   6
##########                       Formal_Charge:           0.0200003
##########                     HBond_Acceptors:                   8
##########                        HBond_Donors:                   0
##########                         Heavy_Atoms:                  26
##########                          Grid_Score:          -39.023842
##########                     Grid_vdw_energy:          -38.157997
##########                      Grid_es_energy:           -0.865846
##########           Internal_energy_repulsive:            8.053110

@<TRIPOS>MOLECULE
ZINC000918875053
 44 47 1 0 0
SMALL
USER_CHARGES


@<TRIPOS>ATOM
      1 C1        -12.1138   -1.7568   51.5652 C.3     1  ZINC000918875053   -0.1700
      2 C2        -11.0655   -1.9175   52.6680 C.3     1  ZINC000918875053    0.1900
      3 H3        -11.4021   -1.4014   53.5672 H       1  ZINC000918875053    0.1400
      4 O4        -10.8818   -3.3280   52.9596 O.3     1  ZINC000918875053   -0.3400
      5 C5        -11.8999   -3.9635   53.5608 C.2     1  ZINC000918875053    0.4800
      6 O6        -12.3276   -4.9937   53.0965 O.2     1  ZINC000918875053   -0.4900
      7 C7        -12.5096   -3.3919   54.8149 C.3     1  ZINC000918875053   -0.0900
      8 H8        -12.9940   -2.4371   54.6105 H       1  ZINC000918875053    0.1400
      9 C9        -13.5028   -4.3910   55.4524 C.3     1  ZINC000918875053   -0.1400
     10 C10       -13.3027   -4.2140   56.9414 C.2     1  ZINC000918875053    0.5300
     11 O11       -14.0713   -4.6003   57.7964 O.2     1  ZINC000918875053   -0.5000
     12 N12       -12.1489   -3.5666   57.1790 N.am    1  ZINC000918875053   -0.5800
     13 C13       -11.6753   -3.2386   58.4555 C.ar    1  ZINC000918875053    0.1000
     14 C14       -12.1412   -2.1007   59.0990 C.ar    1  ZINC000918875053   -0.0800
     15 C15       -11.6725   -1.7796   60.3586 C.ar    1  ZINC000918875053   -0.1200
     16 C16       -10.7399   -2.5898   60.9790 C.ar    1  ZINC000918875053   -0.0800
     17 C17       -10.2724   -3.7250   60.3418 C.ar    1  ZINC000918875053   -0.1500
     18 C18       -10.7412   -4.0555   59.0838 C.ar    1  ZINC000918875053    0.1100
     19 F19       -10.2850   -5.1645   58.4615 F       1  ZINC000918875053   -0.1300
     20 C20       -11.4490   -3.2467   55.9286 C.3     1  ZINC000918875053    0.1200
     21 C21        -9.7582   -1.3252   52.2084 C.2     1  ZINC000918875053    0.1800
     22 N22        -9.3473   -0.0950   52.4016 N.2     1  ZINC000918875053   -0.4600
     23 C23        -8.1360   -0.0225   51.8217 C.2     1  ZINC000918875053    0.2100
     24 C24        -7.2432    1.1904   51.7698 C.3     1  ZINC000918875053   -0.0900
     25 C25        -6.1678    1.2300   50.6822 C.3     1  ZINC000918875053   -0.1600
     26 C26        -7.3991    2.1317   50.5737 C.3     1  ZINC000918875053   -0.1500
     27 N27        -7.8768   -1.1906   51.3148 N.2     1  ZINC000918875053   -0.3700
     28 O28        -8.7935   -1.9549   51.5311 O.3     1  ZINC000918875053    0.1000
     29 H29       -13.0594   -2.1853   51.8976 H       1  ZINC000918875053    0.0900
     30 H30       -12.2516   -0.6980   51.3463 H       1  ZINC000918875053    0.0900
     31 H31       -11.7773   -2.2729   50.6660 H       1  ZINC000918875053    0.0800
     32 H32       -14.5265   -4.1422   55.1728 H       1  ZINC000918875053    0.1300
     33 H33       -13.2621   -5.4113   55.1538 H       1  ZINC000918875053    0.1100
     34 H34       -12.8693   -1.4663   58.6153 H       1  ZINC000918875053    0.1400
     35 H35       -12.0353   -0.8940   60.8592 H       1  ZINC000918875053    0.1400
     36 H36       -10.3752   -2.3356   61.9631 H       1  ZINC000918875053    0.1400
     37 H37        -9.5438   -4.3558   60.8292 H       1  ZINC000918875053    0.1400
     38 H38       -10.6312   -3.9482   55.7638 H       1  ZINC000918875053    0.1000
     39 H39       -11.0701   -2.2251   55.9592 H       1  ZINC000918875053    0.1000
     40 H40        -7.0011    1.6375   52.7339 H       1  ZINC000918875053    0.1400
     41 H41        -5.2178    1.7031   50.9307 H       1  ZINC000918875053    0.1100
     42 H42        -6.1061    0.3787   50.0043 H       1  ZINC000918875053    0.1000
     43 H43        -8.1475    1.8736   49.8245 H       1  ZINC000918875053    0.1000
     44 H44        -7.2591    3.1980   50.7510 H       1  ZINC000918875053    0.1100
@<TRIPOS>BOND
     1     1     2    1
     2     1    29    1
     3     1    30    1
     4     1    31    1
     5     2     3    1
     6     2     4    1
     7     2    21    1
     8     4     5    1
     9     5     6    2
    10     5     7    1
    11     7     8    1
    12     7    20    1
    13     7     9    1
    14     9    10    1
    15     9    32    1
    16     9    33    1
    17    10    11    2
    18    10    12   am
    19    12    13    1
    20    12    20    1
    21    13    18   ar
    22    13    14   ar
    23    14    15   ar
    24    14    34    1
    25    15    16   ar
    26    15    35    1
    27    16    17   ar
    28    16    36    1
    29    17    18   ar
    30    17    37    1
    31    18    19    1
    32    20    38    1
    33    20    39    1
    34    21    28    1
    35    21    22    2
    36    22    23    1
    37    23    24    1
    38    23    27    2
    39    24    26    1
    40    24    25    1
    41    24    40    1
    42    25    26    1
    43    25    41    1
    44    25    42    1
    45    26    43    1
    46    26    44    1
    47    27    28    1
@<TRIPOS>SUBSTRUCTURE
     1 ZINC000918875053        1 TEMP              0 ****  ****    0 ROOT


##########                                Name:    ZINC000467185792
##########                DOCK_Rotatable_Bonds:                   9
##########                         Heavy_Atoms:                  29
##########                    Molecular_Weight:             412.513
##########                DOCK_Rotatable_Bonds:                   9
##########                       Formal_Charge:                0.04
##########                     HBond_Acceptors:                   8
##########                        HBond_Donors:                   2
##########                         Heavy_Atoms:                  29
##########                          Grid_Score:          -38.943085
##########                     Grid_vdw_energy:          -36.736008
##########                      Grid_es_energy:           -2.207079
##########           Internal_energy_repulsive:           26.853888

@<TRIPOS>MOLECULE
ZINC000467185792
 53 55 1 0 0
SMALL
USER_CHARGES


@<TRIPOS>ATOM
      1 C1        -14.2279   -0.0924   47.8724 C.3     1  ZINC000467185792   -0.1500
      2 C2        -14.8554   -1.4850   47.9614 C.3     1  ZINC000467185792   -0.1200
      3 C3        -15.0918   -1.8448   49.4296 C.3     1  ZINC000467185792    0.0600
      4 O4        -13.8346   -1.9772   50.0959 O.3     1  ZINC000467185792   -0.3100
      5 C5        -13.8590   -2.4417   51.3730 C.ar    1  ZINC000467185792    0.1400
      6 C6        -15.0678   -2.5548   52.0458 C.ar    1  ZINC000467185792   -0.2100
      7 C7        -15.0960   -3.0263   53.3417 C.ar    1  ZINC000467185792   -0.0400
      8 C8        -13.9088   -3.3894   53.9757 C.ar    1  ZINC000467185792   -0.0600
      9 C9        -13.9356   -3.8973   55.3692 C.2     1  ZINC000467185792    0.1400
     10 C10       -14.7110   -4.9308   55.7427 C.2     1  ZINC000467185792   -0.3000
     11 S11       -14.4538   -5.2194   57.4619 S.3     1  ZINC000467185792    0.2000
     12 C12       -13.3001   -3.8898   57.5130 C.2     1  ZINC000467185792    0.2800
     13 N13       -12.6093   -3.4697   58.6415 N.am    1  ZINC000467185792   -0.6100
     14 C14       -11.5311   -2.6711   58.5132 C.2     1  ZINC000467185792    0.5900
     15 O15       -11.1635   -2.3187   57.4089 O.2     1  ZINC000467185792   -0.4900
     16 C16       -10.7979   -2.2253   59.7111 C.2     1  ZINC000467185792   -0.2400
     17 C17       -11.1389   -1.0467   60.3717 C.2     1  ZINC000467185792    0.0800
     18 C18       -12.2738   -0.1838   59.8831 C.3     1  ZINC000467185792   -0.1200
     19 C19       -11.7380    0.8491   58.8897 C.3     1  ZINC000467185792   -0.1400
     20 C20       -10.3960   -0.6882   61.5032 C.2     1  ZINC000467185792    0.0600
     21 C21       -10.7327    0.5785   62.2469 C.3     1  ZINC000467185792   -0.0600
     22 C22       -11.7477    0.2683   63.3491 C.3     1  ZINC000467185792   -0.1500
     23 N23        -9.4149   -1.4416   61.9198 N.2     1  ZINC000467185792   -0.1800
     24 N24        -9.0749   -2.5318   61.3358 N.am    1  ZINC000467185792   -0.4300
     25 C25        -9.7173   -2.9846   60.2422 C.2     1  ZINC000467185792    0.5000
     26 O26        -9.3715   -4.0245   59.7083 O.2     1  ZINC000467185792   -0.5300
     27 N27       -13.1928   -3.3675   56.3306 N.2     1  ZINC000467185792   -0.5000
     28 C28       -12.6965   -3.2746   53.2973 C.ar    1  ZINC000467185792   -0.0600
     29 C29       -12.6756   -2.8074   51.9997 C.ar    1  ZINC000467185792   -0.1500
     30 H30       -13.2771   -0.0876   48.4054 H       1  ZINC000467185792    0.0600
     31 H31       -14.0593    0.1640   46.8265 H       1  ZINC000467185792    0.0700
     32 H32       -14.9000    0.6385   48.3220 H       1  ZINC000467185792    0.0600
     33 H33       -15.8062   -1.4897   47.4285 H       1  ZINC000467185792    0.0700
     34 H34       -14.1831   -2.2158   47.5119 H       1  ZINC000467185792    0.0700
     35 H35       -15.6752   -1.0577   49.9073 H       1  ZINC000467185792    0.0600
     36 H36       -15.6358   -2.7875   49.4896 H       1  ZINC000467185792    0.0600
     37 H37       -15.9872   -2.2730   51.5542 H       1  ZINC000467185792    0.1300
     38 H38       -16.0369   -3.1138   53.8648 H       1  ZINC000467185792    0.1300
     39 H39       -15.3768   -5.4876   55.0999 H       1  ZINC000467185792    0.1800
     40 H40       -12.9026   -3.7508   59.5223 H       1  ZINC000467185792    0.4400
     41 H41       -13.0193   -0.8085   59.3911 H       1  ZINC000467185792    0.0900
     42 H42       -12.7307    0.3290   60.7295 H       1  ZINC000467185792    0.1300
     43 H43       -10.9924    1.4738   59.3817 H       1  ZINC000467185792    0.0600
     44 H44       -11.2810    0.3363   58.0433 H       1  ZINC000467185792    0.0600
     45 H45       -12.5588    1.4732   58.5363 H       1  ZINC000467185792    0.0700
     46 H46        -9.8269    0.9899   62.6924 H       1  ZINC000467185792    0.1000
     47 H47       -11.1590    1.3042   61.5543 H       1  ZINC000467185792    0.1000
     48 H48       -11.9911    1.1845   63.8870 H       1  ZINC000467185792    0.0600
     49 H49       -12.6534   -0.1431   62.9036 H       1  ZINC000467185792    0.0600
     50 H50       -11.3214   -0.4573   64.0417 H       1  ZINC000467185792    0.0600
     51 H51        -8.3359   -3.0475   61.6950 H       1  ZINC000467185792    0.4500
     52 H52       -11.7750   -3.5548   53.7859 H       1  ZINC000467185792    0.1300
     53 H53       -11.7368   -2.7185   51.4735 H       1  ZINC000467185792    0.1400
@<TRIPOS>BOND
     1     1     2    1
     2     1    30    1
     3     1    31    1
     4     1    32    1
     5     2     3    1
     6     2    33    1
     7     2    34    1
     8     3     4    1
     9     3    35    1
    10     3    36    1
    11     4     5    1
    12     5    29   ar
    13     5     6   ar
    14     6     7   ar
    15     6    37    1
    16     7     8   ar
    17     7    38    1
    18     8     9    1
    19     8    28   ar
    20     9    27    1
    21     9    10    2
    22    10    11    1
    23    10    39    1
    24    11    12    1
    25    12    13    1
    26    12    27    2
    27    13    14   am
    28    13    40    1
    29    14    15    2
    30    14    16    1
    31    16    25    1
    32    16    17    2
    33    17    18    1
    34    17    20    1
    35    18    19    1
    36    18    41    1
    37    18    42    1
    38    19    43    1
    39    19    44    1
    40    19    45    1
    41    20    21    1
    42    20    23    2
    43    21    22    1
    44    21    46    1
    45    21    47    1
    46    22    48    1
    47    22    49    1
    48    22    50    1
    49    23    24    1
    50    24    25   am
    51    24    51    1
    52    25    26    2
    53    28    29   ar
    54    28    52    1
    55    29    53    1
@<TRIPOS>SUBSTRUCTURE
     1 ZINC000467185792        1 TEMP              0 ****  ****    0 ROOT


##########                                Name:    ZINC000563265674
##########                DOCK_Rotatable_Bonds:                   7
##########                         Heavy_Atoms:                  25
##########                    Molecular_Weight:             386.859
##########                DOCK_Rotatable_Bonds:                   7
##########                       Formal_Charge:          0.00999963
##########                     HBond_Acceptors:                  10
##########                        HBond_Donors:                   2
##########                         Heavy_Atoms:                  25
##########                          Grid_Score:          -38.934326
##########                     Grid_vdw_energy:          -38.520802
##########                      Grid_es_energy:           -0.413525
##########           Internal_energy_repulsive:           20.530743

@<TRIPOS>MOLECULE
ZINC000563265674
 44 45 1 0 0
SMALL
USER_CHARGES


@<TRIPOS>ATOM
      1 C1         -0.3379   -0.8435   40.9707 C.3     1  ZINC000563265674   -0.0600
      2 C2         -0.6610   -0.2962   42.3371 C.2     1  ZINC000563265674    0.1700
      3 N3         -1.4310   -0.8504   43.2251 N.2     1  ZINC000563265674   -0.3800
      4 O4         -1.4868   -0.1608   44.2214 O.3     1  ZINC000563265674    0.0900
      5 C5         -0.7349    0.9320   44.0586 C.2     1  ZINC000563265674    0.1900
      6 C6         -0.5347    2.0409   45.0594 C.3     1  ZINC000563265674    0.2100
      7 C7          0.9063    2.5486   44.9764 C.3     1  ZINC000563265674   -0.1400
      8 C8         -1.4982    3.1880   44.7491 C.3     1  ZINC000563265674   -0.1800
      9 N9         -0.7976    1.5328   46.4124 N.3     1  ZINC000563265674   -0.6600
     10 C10        -2.1613    0.9966   46.5175 C.3     1  ZINC000563265674    0.0400
     11 C11        -2.8531    1.6128   47.7061 C.2     1  ZINC000563265674    0.5200
     12 O12        -3.2819    2.7454   47.6381 O.2     1  ZINC000563265674   -0.4900
     13 N13        -2.9953    0.9056   48.8444 N.am    1  ZINC000563265674   -0.6700
     14 C14        -3.6379    1.4780   49.9485 C.ar    1  ZINC000563265674    0.1400
     15 C15        -4.9998    1.2865   50.1370 C.ar    1  ZINC000563265674   -0.0300
     16 C16        -5.6312    1.8523   51.2278 C.ar    1  ZINC000563265674   -0.6400
     17 S17        -7.3598    1.6091   51.4676 S.o2    1  ZINC000563265674    2.5000
     18 C18        -7.5748   -0.1914   51.4169 C.3     1  ZINC000563265674   -0.6500
     19 O19        -7.6050    2.1040   52.7769 O.2     1  ZINC000563265674   -0.9300
     20 O20        -7.9599    2.2151   50.3311 O.2     1  ZINC000563265674   -0.9300
     21 C21        -4.9086    2.6088   52.1317 C.ar    1  ZINC000563265674   -0.0300
     22 C22        -3.5516    2.8024   51.9473 C.ar    1  ZINC000563265674   -0.1100
     23 C23        -2.9128    2.2346   50.8615 C.ar    1  ZINC000563265674   -0.0200
     24 Cl24       -1.2093    2.4772   50.6307 Cl      1  ZINC000563265674   -0.0500
     25 N25        -0.2008    0.8526   42.8637 N.2     1  ZINC000563265674   -0.4700
     26 H26         0.5462   -1.4780   41.0331 H       1  ZINC000563265674    0.0900
     27 H27        -1.1810   -1.4299   40.6055 H       1  ZINC000563265674    0.0900
     28 H28        -0.1452   -0.0182   40.2850 H       1  ZINC000563265674    0.0900
     29 H29         1.1014    2.9255   43.9725 H       1  ZINC000563265674    0.0800
     30 H30         1.0512    3.3506   45.7002 H       1  ZINC000563265674    0.0800
     31 H31         1.5928    1.7313   45.1974 H       1  ZINC000563265674    0.0700
     32 H32        -2.5248    2.8264   44.8083 H       1  ZINC000563265674    0.0700
     33 H33        -1.3534    3.9901   45.4729 H       1  ZINC000563265674    0.0800
     34 H34        -1.3032    3.5650   43.7452 H       1  ZINC000563265674    0.0800
     35 H35        -0.1148    0.8386   46.6770 H       1  ZINC000563265674    0.3600
     36 H36        -2.7163    1.2348   45.6102 H       1  ZINC000563265674    0.1200
     37 H37        -2.1176   -0.0853   46.6432 H       1  ZINC000563265674    0.0800
     38 H38        -2.6524   -0.0002   48.8988 H       1  ZINC000563265674    0.4200
     39 H39        -5.5653    0.6961   49.4314 H       1  ZINC000563265674    0.1700
     40 H40        -6.9854   -0.6502   52.2107 H       1  ZINC000563265674    0.1300
     41 H41        -8.6276   -0.4357   51.5586 H       1  ZINC000563265674    0.1400
     42 H42        -7.2407   -0.5702   50.4510 H       1  ZINC000563265674    0.1400
     43 H43        -5.4049    3.0499   52.9833 H       1  ZINC000563265674    0.1500
     44 H44        -2.9900    3.3941   52.6550 H       1  ZINC000563265674    0.1500
@<TRIPOS>BOND
     1     1     2    1
     2     1    26    1
     3     1    27    1
     4     1    28    1
     5     2    25    1
     6     2     3    2
     7     3     4    1
     8     4     5    1
     9     5     6    1
    10     5    25    2
    11     6     7    1
    12     6     8    1
    13     6     9    1
    14     7    29    1
    15     7    30    1
    16     7    31    1
    17     8    32    1
    18     8    33    1
    19     8    34    1
    20     9    10    1
    21     9    35    1
    22    10    11    1
    23    10    36    1
    24    10    37    1
    25    11    12    2
    26    11    13   am
    27    13    14    1
    28    13    38    1
    29    14    23   ar
    30    14    15   ar
    31    15    16   ar
    32    15    39    1
    33    16    17    1
    34    16    21   ar
    35    17    18    1
    36    17    19    2
    37    17    20    2
    38    18    40    1
    39    18    41    1
    40    18    42    1
    41    21    22   ar
    42    21    43    1
    43    22    23   ar
    44    22    44    1
    45    23    24    1
@<TRIPOS>SUBSTRUCTURE
     1 ZINC000563265674        1 TEMP              0 ****  ****    0 ROOT


##########                                Name:    ZINC000027473870
##########                DOCK_Rotatable_Bonds:                  10
##########                         Heavy_Atoms:                  31
##########                    Molecular_Weight:             422.502
##########                DOCK_Rotatable_Bonds:                  10
##########                       Formal_Charge:        -7.45058e-08
##########                     HBond_Acceptors:                   7
##########                        HBond_Donors:                   1
##########                         Heavy_Atoms:                  31
##########                          Grid_Score:          -38.808365
##########                     Grid_vdw_energy:          -38.382946
##########                      Grid_es_energy:           -0.425419
##########           Internal_energy_repulsive:           22.134716

@<TRIPOS>MOLECULE
ZINC000027473870
 58 60 1 0 0
SMALL
USER_CHARGES


@<TRIPOS>ATOM
      1 C1         -8.7743    1.8825   54.0583 C.3     1  ZINC000027473870   -0.1400
      2 C2         -9.6665    1.4224   52.9037 C.3     1  ZINC000027473870   -0.0800
      3 C3         -9.0301    0.2417   52.2168 C.2     1  ZINC000027473870    0.1700
      4 C4         -7.8361    0.2453   51.5233 C.2     1  ZINC000027473870   -0.2900
      5 C5         -6.9473    1.4031   51.3173 C.2     1  ZINC000027473870    0.6000
      6 O6         -7.4169    2.4853   51.0221 O.2     1  ZINC000027473870   -0.5400
      7 N7         -5.6141    1.2624   51.4561 N.am    1  ZINC000027473870   -0.7200
      8 C8         -4.7309    2.4135   51.2531 C.3     1  ZINC000027473870    0.1600
      9 C9         -3.7188    2.0879   50.1850 C.ar    1  ZINC000027473870   -0.0900
     10 C10        -4.1453    1.6917   48.9299 C.ar    1  ZINC000027473870   -0.1100
     11 C11        -3.2240    1.3917   47.9478 C.ar    1  ZINC000027473870   -0.1100
     12 C12        -1.8591    1.4890   48.2227 C.ar    1  ZINC000027473870   -0.1200
     13 C13        -0.8660    1.1695   47.1748 C.2     1  ZINC000027473870    0.5600
     14 O14        -0.6433    0.0111   46.8816 O.2     1  ZINC000027473870   -0.5300
     15 N15        -0.2078    2.1626   46.5449 N.am    1  ZINC000027473870   -0.6100
     16 C16        -0.4763    3.5587   46.8983 C.3     1  ZINC000027473870    0.1100
     17 C17        -1.7079    4.0502   46.1353 C.3     1  ZINC000027473870   -0.1700
     18 C18         0.7762    1.8460   45.5066 C.3     1  ZINC000027473870    0.0900
     19 C19         0.1463    2.0511   44.1275 C.3     1  ZINC000027473870   -0.1800
     20 C20        -1.4355    1.8897   49.4908 C.ar    1  ZINC000027473870   -0.0700
     21 C21        -2.3673    2.1918   50.4623 C.ar    1  ZINC000027473870   -0.1000
     22 C22        -7.6254   -1.0689   51.0481 C.2     1  ZINC000027473870    0.0900
     23 N23        -8.6307   -1.8052   51.4354 N.2     1  ZINC000027473870   -0.2800
     24 N24        -9.5175   -1.0113   52.1712 N.pl3   1  ZINC000027473870   -0.3100
     25 C25       -10.7164   -1.4460   52.7541 C.ar    1  ZINC000027473870    0.1300
     26 C26       -11.6697   -2.0949   51.9811 C.ar    1  ZINC000027473870   -0.0900
     27 C27       -12.8498   -2.5228   52.5570 C.ar    1  ZINC000027473870   -0.1300
     28 C28       -13.0824   -2.3049   53.9047 C.ar    1  ZINC000027473870    0.1100
     29 F29       -14.2371   -2.7245   54.4666 F       1  ZINC000027473870   -0.1300
     30 C30       -12.1325   -1.6577   54.6773 C.ar    1  ZINC000027473870   -0.1400
     31 C31       -10.9491   -1.2330   54.1061 C.ar    1  ZINC000027473870   -0.0700
     32 H32        -9.1894    2.7886   54.4996 H       1  ZINC000027473870    0.0700
     33 H33        -8.7260    1.0992   54.8147 H       1  ZINC000027473870    0.0700
     34 H34        -7.7716    2.0876   53.6831 H       1  ZINC000027473870    0.0500
     35 H35       -10.6432    1.1337   53.2921 H       1  ZINC000027473870    0.1200
     36 H36        -9.7858    2.2373   52.1897 H       1  ZINC000027473870    0.0800
     37 H37        -5.2393    0.3989   51.6902 H       1  ZINC000027473870    0.4000
     38 H38        -5.3222    3.2749   50.9428 H       1  ZINC000027473870    0.0800
     39 H39        -4.2145    2.6439   52.1849 H       1  ZINC000027473870    0.0800
     40 H40        -5.2017    1.6168   48.7185 H       1  ZINC000027473870    0.1300
     41 H41        -3.5582    1.0819   46.9686 H       1  ZINC000027473870    0.1500
     42 H42        -0.6593    3.6334   47.9703 H       1  ZINC000027473870    0.0800
     43 H43         0.3845    4.1726   46.6331 H       1  ZINC000027473870    0.0800
     44 H44        -1.9077    5.0889   46.3983 H       1  ZINC000027473870    0.0700
     45 H45        -1.5249    3.9756   45.0633 H       1  ZINC000027473870    0.0600
     46 H46        -2.5687    3.4362   46.4006 H       1  ZINC000027473870    0.0600
     47 H47         1.6400    2.5021   45.6127 H       1  ZINC000027473870    0.0800
     48 H48         1.0930    0.8082   45.6107 H       1  ZINC000027473870    0.0900
     49 H49         0.7714    1.5801   43.3689 H       1  ZINC000027473870    0.0700
     50 H50        -0.8464    1.6013   44.1108 H       1  ZINC000027473870    0.0700
     51 H51         0.0651    3.1182   43.9201 H       1  ZINC000027473870    0.0600
     52 H52        -0.3807    1.9665   49.7099 H       1  ZINC000027473870    0.1300
     53 H53        -2.0410    2.5023   51.4439 H       1  ZINC000027473870    0.1300
     54 H54        -6.7802   -1.4050   50.4657 H       1  ZINC000027473870    0.1900
     55 H55       -11.4889   -2.2648   50.9299 H       1  ZINC000027473870    0.1500
     56 H56       -13.5918   -3.0274   51.9559 H       1  ZINC000027473870    0.1500
     57 H57       -12.3159   -1.4884   55.7281 H       1  ZINC000027473870    0.1500
     58 H58       -10.2085   -0.7287   54.7090 H       1  ZINC000027473870    0.1400
@<TRIPOS>BOND
     1     1     2    1
     2     1    32    1
     3     1    33    1
     4     1    34    1
     5     2     3    1
     6     2    35    1
     7     2    36    1
     8     3    24    1
     9     3     4    2
    10     4     5    1
    11     4    22    1
    12     5     6    2
    13     5     7   am
    14     7     8    1
    15     7    37    1
    16     8     9    1
    17     8    38    1
    18     8    39    1
    19     9    21   ar
    20     9    10   ar
    21    10    11   ar
    22    10    40    1
    23    11    12   ar
    24    11    41    1
    25    12    13    1
    26    12    20   ar
    27    13    14    2
    28    13    15   am
    29    15    16    1
    30    15    18    1
    31    16    17    1
    32    16    42    1
    33    16    43    1
    34    17    44    1
    35    17    45    1
    36    17    46    1
    37    18    19    1
    38    18    47    1
    39    18    48    1
    40    19    49    1
    41    19    50    1
    42    19    51    1
    43    20    21   ar
    44    20    52    1
    45    21    53    1
    46    22    23    2
    47    22    54    1
    48    23    24    1
    49    24    25    1
    50    25    31   ar
    51    25    26   ar
    52    26    27   ar
    53    26    55    1
    54    27    28   ar
    55    27    56    1
    56    28    29    1
    57    28    30   ar
    58    30    31   ar
    59    30    57    1
    60    31    58    1
@<TRIPOS>SUBSTRUCTURE
     1 ZINC000027473870        1 TEMP              0 ****  ****    0 ROOT


##########                                Name:    ZINC000432253027
##########                DOCK_Rotatable_Bonds:                   8
##########                         Heavy_Atoms:                  26
##########                    Molecular_Weight:             401.436
##########                DOCK_Rotatable_Bonds:                   8
##########                       Formal_Charge:         1.19209e-07
##########                     HBond_Acceptors:                  11
##########                        HBond_Donors:                   0
##########                         Heavy_Atoms:                  26
##########                          Grid_Score:          -38.788338
##########                     Grid_vdw_energy:          -37.688259
##########                      Grid_es_energy:           -1.100080
##########           Internal_energy_repulsive:           10.382334

@<TRIPOS>MOLECULE
ZINC000432253027
 40 42 1 0 0
SMALL
USER_CHARGES


@<TRIPOS>ATOM
      1 C1         -9.9127    0.0606   56.6785 C.3     1  ZINC000432253027    0.0300
      2 O2        -10.9454   -0.7418   57.2547 O.3     1  ZINC000432253027   -0.3100
      3 C3        -10.5595   -1.7172   58.1174 C.ar    1  ZINC000432253027    0.1500
      4 C4         -9.8890   -1.3882   59.2840 C.ar    1  ZINC000432253027   -0.2100
      5 C5         -9.4963   -2.3818   60.1612 C.ar    1  ZINC000432253027   -0.0600
      6 C6         -9.7694   -3.7093   59.8817 C.ar    1  ZINC000432253027   -0.1600
      7 C7        -10.4365   -4.0532   58.7239 C.ar    1  ZINC000432253027   -0.0300
      8 C8        -10.8430   -3.0591   57.8339 C.ar    1  ZINC000432253027   -0.0600
      9 C9        -11.5577   -3.4208   56.5921 C.2     1  ZINC000432253027    0.1200
     10 N10       -11.0603   -3.3635   55.3896 N.2     1  ZINC000432253027   -0.4600
     11 C11       -11.8457   -3.7265   54.4011 C.2     1  ZINC000432253027    0.0800
     12 C12       -11.3873   -3.7052   52.9656 C.3     1  ZINC000432253027   -0.0200
     13 S13       -11.9289   -2.1623   52.1806 S.3     1  ZINC000432253027   -0.1700
     14 C14       -10.8529   -0.9167   52.9431 C.3     1  ZINC000432253027   -0.0300
     15 C15        -9.4932   -0.9631   52.2952 C.2     1  ZINC000432253027    0.2100
     16 N16        -8.9725   -1.9717   51.6398 N.2     1  ZINC000432253027   -0.2700
     17 N17        -7.7986   -1.6228   51.2397 N.2     1  ZINC000432253027   -0.0500
     18 N18        -7.5568   -0.4178   51.6228 N.2     1  ZINC000432253027   -0.0700
     19 N19        -8.5799    0.0254   52.2721 N.pl3   1  ZINC000432253027   -0.3100
     20 C20        -8.7178    1.3518   52.8784 C.3     1  ZINC000432253027    0.0700
     21 C21        -7.8977    2.3660   52.0785 C.3     1  ZINC000432253027    0.4300
     22 F22        -8.3479    2.3889   50.7541 F       1  ZINC000432253027   -0.1500
     23 F23        -8.0475    3.6368   52.6441 F       1  ZINC000432253027   -0.1700
     24 F24        -6.5478    1.9996   52.1058 F       1  ZINC000432253027   -0.1700
     25 C25       -13.0765   -4.1162   54.7474 C.2     1  ZINC000432253027   -0.2500
     26 S26       -13.2169   -4.0060   56.5008 S.3     1  ZINC000432253027    0.1600
     27 H27       -10.3563    0.7989   56.0105 H       1  ZINC000432253027    0.1000
     28 H28        -9.3641    0.5704   57.4705 H       1  ZINC000432253027    0.0600
     29 H29        -9.2301   -0.5756   56.1150 H       1  ZINC000432253027    0.0600
     30 H30        -9.6725   -0.3542   59.5083 H       1  ZINC000432253027    0.1400
     31 H31        -8.9730   -2.1208   61.0692 H       1  ZINC000432253027    0.1300
     32 H32        -9.4590   -4.4793   60.5725 H       1  ZINC000432253027    0.1300
     33 H33       -10.6475   -5.0905   58.5091 H       1  ZINC000432253027    0.1400
     34 H34       -10.2997   -3.7685   52.9306 H       1  ZINC000432253027    0.1000
     35 H35       -11.8178   -4.5539   52.4341 H       1  ZINC000432253027    0.1100
     36 H36       -11.2879    0.0730   52.8046 H       1  ZINC000432253027    0.1100
     37 H37       -10.7550   -1.1246   54.0086 H       1  ZINC000432253027    0.1300
     38 H38        -9.7670    1.6470   52.8719 H       1  ZINC000432253027    0.1500
     39 H39        -8.3553    1.3210   53.9059 H       1  ZINC000432253027    0.1600
     40 H40       -13.8503   -4.4455   54.0698 H       1  ZINC000432253027    0.1800
@<TRIPOS>BOND
     1     1     2    1
     2     1    27    1
     3     1    28    1
     4     1    29    1
     5     2     3    1
     6     3     8   ar
     7     3     4   ar
     8     4     5   ar
     9     4    30    1
    10     5     6   ar
    11     5    31    1
    12     6     7   ar
    13     6    32    1
    14     7     8   ar
    15     7    33    1
    16     8     9    1
    17     9    26    1
    18     9    10    2
    19    10    11    1
    20    11    12    1
    21    11    25    2
    22    12    13    1
    23    12    34    1
    24    12    35    1
    25    13    14    1
    26    14    15    1
    27    14    36    1
    28    14    37    1
    29    15    19    1
    30    15    16    2
    31    16    17    1
    32    17    18    2
    33    18    19    1
    34    19    20    1
    35    20    21    1
    36    20    38    1
    37    20    39    1
    38    21    22    1
    39    21    23    1
    40    21    24    1
    41    25    26    1
    42    25    40    1
@<TRIPOS>SUBSTRUCTURE
     1 ZINC000432253027        1 TEMP              0 ****  ****    0 ROOT


##########                                Name:    ZINC000051488227
##########                DOCK_Rotatable_Bonds:                   8
##########                         Heavy_Atoms:                  30
##########                    Molecular_Weight:             403.478
##########                DOCK_Rotatable_Bonds:                   8
##########                       Formal_Charge:           0.0199996
##########                     HBond_Acceptors:                   5
##########                        HBond_Donors:                   0
##########                         Heavy_Atoms:                  30
##########                          Grid_Score:          -38.711212
##########                     Grid_vdw_energy:          -39.020908
##########                      Grid_es_energy:            0.309696
##########           Internal_energy_repulsive:           22.627901

@<TRIPOS>MOLECULE
ZINC000051488227
 55 58 1 0 0
SMALL
USER_CHARGES


@<TRIPOS>ATOM
      1 O1        -11.4711   -5.2379   56.8371 O.2     1  ZINC000051488227   -0.5000
      2 C2        -12.1300   -4.2296   56.9331 C.2     1  ZINC000051488227    0.4800
      3 O3        -11.7695   -3.2727   57.8027 O.3     1  ZINC000051488227   -0.3400
      4 C4        -10.4630   -3.4034   58.4225 C.3     1  ZINC000051488227    0.1100
      5 C5        -10.3296   -2.3917   59.5315 C.ar    1  ZINC000051488227   -0.1400
      6 C6         -9.6534   -2.7237   60.6909 C.ar    1  ZINC000051488227   -0.0500
      7 C7         -9.5299   -1.7981   61.7090 C.ar    1  ZINC000051488227   -0.1500
      8 C8        -10.0846   -0.5344   61.5670 C.ar    1  ZINC000051488227    0.1500
      9 O9         -9.9640    0.3780   62.5669 O.3     1  ZINC000051488227   -0.3100
     10 C10        -9.2074   -0.0132   63.7144 C.3     1  ZINC000051488227    0.1100
     11 C11        -9.1832    1.1181   64.7097 C.ar    1  ZINC000051488227    0.1200
     12 C12        -8.0925    1.2701   65.5443 C.ar    1  ZINC000051488227   -0.1500
     13 C13        -8.0799    2.3147   66.4563 C.ar    1  ZINC000051488227   -0.0700
     14 C14        -9.1698    3.1706   66.4943 C.ar    1  ZINC000051488227   -0.1700
     15 C15       -10.2254    2.9557   65.6281 C.ar    1  ZINC000051488227    0.1100
     16 N16       -10.2008    1.9547   64.7702 N.ar    1  ZINC000051488227   -0.4800
     17 C17       -10.7621   -0.2037   60.4025 C.ar    1  ZINC000051488227   -0.2100
     18 C18       -10.8788   -1.1313   59.3855 C.ar    1  ZINC000051488227   -0.0500
     19 C19       -13.3527   -4.0436   56.0721 C.3     1  ZINC000051488227    0.0000
     20 C20       -12.9429   -3.5117   54.7230 C.ar    1  ZINC000051488227   -0.0900
     21 C21       -11.6095   -3.2676   54.4522 C.ar    1  ZINC000051488227   -0.1100
     22 C22       -11.2336   -2.7797   53.2146 C.ar    1  ZINC000051488227   -0.1200
     23 C23       -12.1910   -2.5364   52.2477 C.ar    1  ZINC000051488227   -0.1100
     24 C24       -13.5243   -2.7813   52.5182 C.ar    1  ZINC000051488227   -0.1200
     25 C25       -13.8998   -3.2732   53.7542 C.ar    1  ZINC000051488227   -0.1000
     26 C26       -14.0671   -5.3875   55.8996 C.3     1  ZINC000051488227   -0.1400
     27 C27       -14.5471   -5.8808   57.2671 C.3     1  ZINC000051488227    0.0600
     28 O28       -15.4060   -4.8995   57.8514 O.3     1  ZINC000051488227   -0.3800
     29 C29       -14.7781   -3.6363   58.0800 C.3     1  ZINC000051488227    0.0500
     30 C30       -14.3075   -3.0529   56.7451 C.3     1  ZINC000051488227   -0.1400
     31 H31       -10.3537   -4.4077   58.8318 H       1  ZINC000051488227    0.0800
     32 H32        -9.6878   -3.2288   57.6763 H       1  ZINC000051488227    0.0800
     33 H33        -9.2218   -3.7076   60.8009 H       1  ZINC000051488227    0.1300
     34 H34        -9.0022   -2.0581   62.6146 H       1  ZINC000051488227    0.1400
     35 H35        -9.6674   -0.8895   64.1714 H       1  ZINC000051488227    0.0900
     36 H36        -8.1880   -0.2536   63.4127 H       1  ZINC000051488227    0.0900
     37 H37        -7.2605    0.5839   65.4874 H       1  ZINC000051488227    0.1400
     38 H38        -7.2411    2.4579   67.1213 H       1  ZINC000051488227    0.1400
     39 H39        -9.1941    3.9945   67.1922 H       1  ZINC000051488227    0.1400
     40 H40       -11.0784    3.6178   65.6517 H       1  ZINC000051488227    0.1600
     41 H41       -11.1952    0.7792   60.2898 H       1  ZINC000051488227    0.1300
     42 H42       -11.4059   -0.8742   58.4785 H       1  ZINC000051488227    0.1300
     43 H43       -10.8615   -3.4578   55.2076 H       1  ZINC000051488227    0.1300
     44 H44       -10.1920   -2.5883   53.0033 H       1  ZINC000051488227    0.1300
     45 H45       -11.8974   -2.1544   51.2810 H       1  ZINC000051488227    0.1200
     46 H46       -14.2724   -2.5909   51.7628 H       1  ZINC000051488227    0.1200
     47 H47       -14.9415   -3.4646   53.9655 H       1  ZINC000051488227    0.1300
     48 H48       -14.9232   -5.2626   55.2365 H       1  ZINC000051488227    0.0900
     49 H49       -13.3770   -6.1147   55.4717 H       1  ZINC000051488227    0.0900
     50 H50       -15.0936   -6.8158   57.1450 H       1  ZINC000051488227    0.1000
     51 H51       -13.6872   -6.0443   57.9168 H       1  ZINC000051488227    0.0500
     52 H52       -15.4912   -2.9545   58.5434 H       1  ZINC000051488227    0.1000
     53 H53       -13.9214   -3.7704   58.7403 H       1  ZINC000051488227    0.0700
     54 H54       -13.7893   -2.1105   56.9219 H       1  ZINC000051488227    0.0900
     55 H55       -15.1684   -2.8808   56.0991 H       1  ZINC000051488227    0.0900
@<TRIPOS>BOND
     1     1     2    2
     2     2     3    1
     3     2    19    1
     4     3     4    1
     5     4     5    1
     6     4    31    1
     7     4    32    1
     8     5    18   ar
     9     5     6   ar
    10     6     7   ar
    11     6    33    1
    12     7     8   ar
    13     7    34    1
    14     8     9    1
    15     8    17   ar
    16     9    10    1
    17    10    11    1
    18    10    35    1
    19    10    36    1
    20    11    16   ar
    21    11    12   ar
    22    12    13   ar
    23    12    37    1
    24    13    14   ar
    25    13    38    1
    26    14    15   ar
    27    14    39    1
    28    15    16   ar
    29    15    40    1
    30    17    18   ar
    31    17    41    1
    32    18    42    1
    33    19    30    1
    34    19    20    1
    35    19    26    1
    36    20    25   ar
    37    20    21   ar
    38    21    22   ar
    39    21    43    1
    40    22    23   ar
    41    22    44    1
    42    23    24   ar
    43    23    45    1
    44    24    25   ar
    45    24    46    1
    46    25    47    1
    47    26    27    1
    48    26    48    1
    49    26    49    1
    50    27    28    1
    51    27    50    1
    52    27    51    1
    53    28    29    1
    54    29    30    1
    55    29    52    1
    56    29    53    1
    57    30    54    1
    58    30    55    1
@<TRIPOS>SUBSTRUCTURE
     1 ZINC000051488227        1 TEMP              0 ****  ****    0 ROOT


##########                                Name:    ZINC001284642199
##########                DOCK_Rotatable_Bonds:                   8
##########                         Heavy_Atoms:                  25
##########                    Molecular_Weight:             346.516
##########                DOCK_Rotatable_Bonds:                   8
##########                       Formal_Charge:         -3.8743e-07
##########                     HBond_Acceptors:                   5
##########                        HBond_Donors:                   2
##########                         Heavy_Atoms:                  25
##########                          Grid_Score:          -38.656345
##########                     Grid_vdw_energy:          -38.058460
##########                      Grid_es_energy:           -0.597887
##########           Internal_energy_repulsive:           25.071560

@<TRIPOS>MOLECULE
ZINC001284642199
 59 60 1 0 0
SMALL
USER_CHARGES


@<TRIPOS>ATOM
      1 C1         -8.2410    1.3442   52.0534 C.3     1  ZINC001284642199   -0.1100
      2 C2         -9.1147    0.1166   52.0816 C.ar    1  ZINC001284642199   -0.1900
      3 C3         -8.5817   -1.1395   51.8387 C.ar    1  ZINC001284642199    0.1500
      4 N4         -9.3795   -2.1948   51.8723 N.ar    1  ZINC001284642199   -0.4900
      5 C5        -10.6647   -2.0615   52.1326 C.ar    1  ZINC001284642199    0.3100
      6 C6        -11.5384   -3.2892   52.1608 C.3     1  ZINC001284642199    0.1300
      7 N7        -11.5392   -3.8585   53.5150 N.3     1  ZINC001284642199   -0.6800
      8 C8        -12.0922   -2.9053   54.4863 C.3     1  ZINC001284642199    0.0500
      9 C9        -12.1816   -3.5717   55.8607 C.3     1  ZINC001284642199    0.1600
     10 H10       -11.5196   -4.4372   55.8885 H       1  ZINC001284642199    0.1000
     11 N11       -11.7786   -2.6152   56.8944 N.am    1  ZINC001284642199   -0.7200
     12 C12       -11.0355   -3.0269   57.9407 C.2     1  ZINC001284642199    0.5200
     13 O13       -10.6990   -4.1890   58.0256 O.2     1  ZINC001284642199   -0.5300
     14 C14       -10.6224   -2.0432   59.0050 C.3     1  ZINC001284642199   -0.1100
     15 H15        -9.8561   -1.3779   58.6071 H       1  ZINC001284642199    0.0900
     16 C16       -11.8374   -1.2203   59.4381 C.3     1  ZINC001284642199   -0.1000
     17 C17       -11.4180   -0.2216   60.5187 C.3     1  ZINC001284642199   -0.1100
     18 C18       -10.8593   -0.9796   61.7246 C.3     1  ZINC001284642199   -0.0900
     19 H19       -11.6257   -1.6449   62.1224 H       1  ZINC001284642199    0.0700
     20 C20       -10.4399    0.0191   62.8051 C.3     1  ZINC001284642199   -0.1500
     21 C21        -9.6444   -1.8025   61.2915 C.3     1  ZINC001284642199   -0.1100
     22 C22       -10.0637   -2.8012   60.2110 C.3     1  ZINC001284642199   -0.1100
     23 C23       -13.6213   -4.0223   56.1162 C.3     1  ZINC001284642199   -0.0800
     24 C24       -13.6723   -4.8690   57.3895 C.3     1  ZINC001284642199   -0.1400
     25 C25       -14.5179   -2.7941   56.2842 C.3     1  ZINC001284642199   -0.1400
     26 C26       -14.1132   -4.8546   54.9303 C.3     1  ZINC001284642199   -0.1300
     27 N27       -11.2071   -0.8828   52.3635 N.ar    1  ZINC001284642199   -0.5100
     28 C28       -10.4704    0.2165   52.3516 C.ar    1  ZINC001284642199    0.1500
     29 H29        -8.2216    1.7531   51.0431 H       1  ZINC001284642199    0.0800
     30 H30        -8.6408    2.0905   52.7398 H       1  ZINC001284642199    0.0700
     31 H31        -7.2288    1.0769   52.3566 H       1  ZINC001284642199    0.0700
     32 H32        -7.5296   -1.2555   51.6244 H       1  ZINC001284642199    0.1700
     33 H33       -11.1520   -4.0263   51.4570 H       1  ZINC001284642199    0.1000
     34 H34       -12.5559   -3.0173   51.8803 H       1  ZINC001284642199    0.0600
     35 H35       -10.6122   -4.1524   53.7843 H       1  ZINC001284642199    0.3400
     36 H36       -13.0875   -2.5968   54.1666 H       1  ZINC001284642199    0.0900
     37 H37       -11.4433   -2.0316   54.5479 H       1  ZINC001284642199    0.0400
     38 H38       -12.0466   -1.6854   56.8259 H       1  ZINC001284642199    0.3900
     39 H39       -12.6037   -1.8855   59.8359 H       1  ZINC001284642199    0.0700
     40 H40       -12.2355   -0.6802   58.5791 H       1  ZINC001284642199    0.0700
     41 H41       -12.2836    0.3647   60.8272 H       1  ZINC001284642199    0.0700
     42 H42       -10.6517    0.4437   60.1209 H       1  ZINC001284642199    0.0600
     43 H43       -11.3055    0.6053   63.1137 H       1  ZINC001284642199    0.0500
     44 H44       -10.0419   -0.5209   63.6643 H       1  ZINC001284642199    0.0500
     45 H45        -9.6736    0.6843   62.4073 H       1  ZINC001284642199    0.0500
     46 H46        -8.8781   -1.1372   60.8937 H       1  ZINC001284642199    0.0600
     47 H47        -9.2463   -2.3426   62.1505 H       1  ZINC001284642199    0.0700
     48 H48       -10.8300   -3.4665   60.6088 H       1  ZINC001284642199    0.0700
     49 H49        -9.1982   -3.3874   59.9024 H       1  ZINC001284642199    0.0600
     50 H50       -13.3218   -4.2761   58.2344 H       1  ZINC001284642199    0.0600
     51 H51       -14.6979   -5.1901   57.5716 H       1  ZINC001284642199    0.0600
     52 H52       -13.0335   -5.7441   57.2698 H       1  ZINC001284642199    0.0500
     53 H53       -14.4817   -2.1909   55.3771 H       1  ZINC001284642199    0.0600
     54 H54       -15.5436   -3.1151   56.4662 H       1  ZINC001284642199    0.0600
     55 H55       -14.1675   -2.2012   57.1290 H       1  ZINC001284642199    0.0600
     56 H56       -13.4745   -5.7296   54.8106 H       1  ZINC001284642199    0.0500
     57 H57       -15.1389   -5.1756   55.1124 H       1  ZINC001284642199    0.0500
     58 H58       -14.0769   -4.2514   54.0232 H       1  ZINC001284642199    0.0600
     59 H59       -10.9205    1.1790   52.5454 H       1  ZINC001284642199    0.1700
@<TRIPOS>BOND
     1     1     2    1
     2     1    29    1
     3     1    30    1
     4     1    31    1
     5     2    28   ar
     6     2     3   ar
     7     3     4   ar
     8     3    32    1
     9     4     5   ar
    10     5     6    1
    11     5    27   ar
    12     6     7    1
    13     6    33    1
    14     6    34    1
    15     7     8    1
    16     7    35    1
    17     8     9    1
    18     8    36    1
    19     8    37    1
    20     9    10    1
    21     9    11    1
    22     9    23    1
    23    11    12   am
    24    11    38    1
    25    12    13    2
    26    12    14    1
    27    14    15    1
    28    14    22    1
    29    14    16    1
    30    16    17    1
    31    16    39    1
    32    16    40    1
    33    17    18    1
    34    17    41    1
    35    17    42    1
    36    18    19    1
    37    18    20    1
    38    18    21    1
    39    20    43    1
    40    20    44    1
    41    20    45    1
    42    21    22    1
    43    21    46    1
    44    21    47    1
    45    22    48    1
    46    22    49    1
    47    23    24    1
    48    23    25    1
    49    23    26    1
    50    24    50    1
    51    24    51    1
    52    24    52    1
    53    25    53    1
    54    25    54    1
    55    25    55    1
    56    26    56    1
    57    26    57    1
    58    26    58    1
    59    27    28   ar
    60    28    59    1
@<TRIPOS>SUBSTRUCTURE
     1 ZINC001284642199        1 TEMP              0 ****  ****    0 ROOT


##########                                Name:    ZINC000471198073
##########                DOCK_Rotatable_Bonds:                  12
##########                         Heavy_Atoms:                  30
##########                    Molecular_Weight:             409.528
##########                DOCK_Rotatable_Bonds:                  12
##########                       Formal_Charge:          -0.0399998
##########                     HBond_Acceptors:                   6
##########                        HBond_Donors:                   3
##########                         Heavy_Atoms:                  30
##########                          Grid_Score:          -38.605560
##########                     Grid_vdw_energy:          -36.345448
##########                      Grid_es_energy:           -2.260113
##########           Internal_energy_repulsive:           20.291037

@<TRIPOS>MOLECULE
ZINC000471198073
 61 62 1 0 0
SMALL
USER_CHARGES


@<TRIPOS>ATOM
      1 C1         -9.3013   -0.0563   64.1984 C.3     1  ZINC000471198073   -0.1400
      2 C2        -10.6921    0.2429   63.6354 C.3     1  ZINC000471198073   -0.1100
      3 C3        -10.8221    1.7438   63.3682 C.3     1  ZINC000471198073   -0.1500
      4 C4        -10.8867   -0.5152   62.3477 C.2     1  ZINC000471198073    0.5200
      5 O5        -11.9793   -0.9589   62.0642 O.2     1  ZINC000471198073   -0.5200
      6 N6         -9.8465   -0.7001   61.5108 N.am    1  ZINC000471198073   -0.6700
      7 C7        -10.0272   -1.4040   60.3150 C.ar    1  ZINC000471198073    0.1600
      8 C8         -9.9468   -2.7907   60.3056 C.ar    1  ZINC000471198073   -0.1500
      9 C9        -10.1254   -3.4870   59.1254 C.ar    1  ZINC000471198073   -0.0800
     10 C10       -10.3844   -2.8071   57.9514 C.ar    1  ZINC000471198073   -0.1300
     11 C11       -10.4656   -1.4194   57.9537 C.ar    1  ZINC000471198073    0.1500
     12 N12       -10.7272   -0.7320   56.7656 N.am    1  ZINC000471198073   -0.6400
     13 C13        -9.7881    0.0749   56.2333 C.2     1  ZINC000471198073    0.5100
     14 O14        -8.7151    0.2044   56.7857 O.2     1  ZINC000471198073   -0.5000
     15 C15       -10.0677    0.8097   54.9634 C.2     1  ZINC000471198073    0.5100
     16 O16       -11.1504    0.7020   54.4257 O.2     1  ZINC000471198073   -0.5100
     17 N17        -9.1175    1.5923   54.4144 N.am    1  ZINC000471198073   -0.7000
     18 C18        -9.3911    2.3117   53.1680 C.3     1  ZINC000471198073    0.1200
     19 C19        -8.0704    2.6494   52.4735 C.3     1  ZINC000471198073   -0.0900
     20 H20        -7.3520    3.0049   53.2122 H       1  ZINC000471198073    0.0800
     21 C21        -7.5197    1.3974   51.7879 C.3     1  ZINC000471198073   -0.0800
     22 C22        -6.0914    1.6392   51.3724 C.ar    1  ZINC000471198073   -0.0800
     23 C23        -5.1781    2.1261   52.2887 C.ar    1  ZINC000471198073   -0.1200
     24 C24        -3.8680    2.3480   51.9076 C.ar    1  ZINC000471198073   -0.1200
     25 C25        -3.4712    2.0826   50.6102 C.ar    1  ZINC000471198073   -0.1200
     26 C26        -4.3844    1.5949   49.6942 C.ar    1  ZINC000471198073   -0.1200
     27 C27        -5.6934    1.3689   50.0765 C.ar    1  ZINC000471198073   -0.1200
     28 C28        -8.3086    3.7405   51.4277 C.3     1  ZINC000471198073   -0.1000
     29 C29        -9.6949    3.5578   50.8068 C.3     1  ZINC000471198073   -0.1600
     30 C30        -8.2262    5.1144   52.0961 C.3     1  ZINC000471198073   -0.1700
     31 C31       -10.2923   -0.7179   59.1386 C.ar    1  ZINC000471198073   -0.1400
     32 H32        -9.1606    0.4920   65.1297 H       1  ZINC000471198073    0.0700
     33 H33        -9.2087   -1.1256   64.3887 H       1  ZINC000471198073    0.0600
     34 H34        -8.5437    0.2513   63.4776 H       1  ZINC000471198073    0.0600
     35 H35       -11.4497   -0.0647   64.3562 H       1  ZINC000471198073    0.1000
     36 H36       -10.0645    2.0515   62.6475 H       1  ZINC000471198073    0.0600
     37 H37       -11.8129    1.9571   62.9672 H       1  ZINC000471198073    0.0600
     38 H38       -10.6813    2.2922   64.2997 H       1  ZINC000471198073    0.0700
     39 H39        -8.9727   -0.3453   61.7374 H       1  ZINC000471198073    0.4100
     40 H40        -9.7441   -3.3255   61.2219 H       1  ZINC000471198073    0.1300
     41 H41       -10.0621   -4.5651   59.1208 H       1  ZINC000471198073    0.1300
     42 H42       -10.5235   -3.3540   57.0305 H       1  ZINC000471198073    0.1400
     43 H43       -11.5847   -0.8355   56.3241 H       1  ZINC000471198073    0.4200
     44 H44        -8.2526    1.6792   54.8448 H       1  ZINC000471198073    0.4200
     45 H45        -9.9965    1.6855   52.5125 H       1  ZINC000471198073    0.0700
     46 H46        -9.9304    3.2323   53.3906 H       1  ZINC000471198073    0.0800
     47 H47        -7.5592    0.5567   52.4807 H       1  ZINC000471198073    0.0800
     48 H48        -8.1210    1.1712   50.9074 H       1  ZINC000471198073    0.0800
     49 H49        -5.4881    2.3335   53.3022 H       1  ZINC000471198073    0.1200
     50 H50        -3.1546    2.7291   52.6232 H       1  ZINC000471198073    0.1200
     51 H51        -2.4478    2.2566   50.3122 H       1  ZINC000471198073    0.1200
     52 H52        -4.0744    1.3877   48.6806 H       1  ZINC000471198073    0.1200
     53 H53        -6.4069    0.9878   49.3609 H       1  ZINC000471198073    0.1200
     54 H54        -7.5493    3.6693   50.6489 H       1  ZINC000471198073    0.0800
     55 H55       -10.4583    3.7263   51.5662 H       1  ZINC000471198073    0.0600
     56 H56        -9.8263    4.2728   49.9946 H       1  ZINC000471198073    0.0600
     57 H57        -9.7877    2.5441   50.4170 H       1  ZINC000471198073    0.0600
     58 H58        -7.2885    5.1953   52.6459 H       1  ZINC000471198073    0.0600
     59 H59        -8.2687    5.8923   51.3338 H       1  ZINC000471198073    0.0600
     60 H60        -9.0626    5.2342   52.7846 H       1  ZINC000471198073    0.0700
     61 H61       -10.3550    0.3603   59.1432 H       1  ZINC000471198073    0.1400
@<TRIPOS>BOND
     1     1     2    1
     2     1    32    1
     3     1    33    1
     4     1    34    1
     5     2     3    1
     6     2     4    1
     7     2    35    1
     8     3    36    1
     9     3    37    1
    10     3    38    1
    11     4     5    2
    12     4     6   am
    13     6     7    1
    14     6    39    1
    15     7    31   ar
    16     7     8   ar
    17     8     9   ar
    18     8    40    1
    19     9    10   ar
    20     9    41    1
    21    10    11   ar
    22    10    42    1
    23    11    12    1
    24    11    31   ar
    25    12    13   am
    26    12    43    1
    27    13    14    2
    28    13    15    1
    29    15    16    2
    30    15    17   am
    31    17    18    1
    32    17    44    1
    33    18    19    1
    34    18    45    1
    35    18    46    1
    36    19    20    1
    37    19    21    1
    38    19    28    1
    39    21    22    1
    40    21    47    1
    41    21    48    1
    42    22    27   ar
    43    22    23   ar
    44    23    24   ar
    45    23    49    1
    46    24    25   ar
    47    24    50    1
    48    25    26   ar
    49    25    51    1
    50    26    27   ar
    51    26    52    1
    52    27    53    1
    53    28    29    1
    54    28    30    1
    55    28    54    1
    56    29    55    1
    57    29    56    1
    58    29    57    1
    59    30    58    1
    60    30    59    1
    61    30    60    1
    62    31    61    1
@<TRIPOS>SUBSTRUCTURE
     1 ZINC000471198073        1 TEMP              0 ****  ****    0 ROOT


##########                                Name:    ZINC000546142192
##########                DOCK_Rotatable_Bonds:                  12
##########                         Heavy_Atoms:                  31
##########                    Molecular_Weight:             420.511
##########                DOCK_Rotatable_Bonds:                  12
##########                       Formal_Charge:          -0.0599997
##########                     HBond_Acceptors:                   7
##########                        HBond_Donors:                   2
##########                         Heavy_Atoms:                  31
##########                          Grid_Score:          -38.591660
##########                     Grid_vdw_energy:          -38.937618
##########                      Grid_es_energy:            0.345959
##########           Internal_energy_repulsive:            9.650531

@<TRIPOS>MOLECULE
ZINC000546142192
 59 61 1 0 0
SMALL
USER_CHARGES


@<TRIPOS>ATOM
      1 C1        -12.6672   -4.4298   53.7214 C.3     1  ZINC000546142192    0.0300
      2 O2        -12.1201   -3.0923   53.5782 O.3     1  ZINC000546142192   -0.3600
      3 C3        -12.1141   -2.5653   52.3437 C.2     1  ZINC000546142192    0.4600
      4 O4        -11.3720   -3.0106   51.5004 O.2     1  ZINC000546142192   -0.5100
      5 C5        -13.0328   -1.4184   52.0096 C.3     1  ZINC000546142192   -0.0800
      6 H6        -12.7607   -1.0061   51.0381 H       1  ZINC000546142192    0.1100
      7 C7        -14.4779   -1.9190   51.9646 C.3     1  ZINC000546142192   -0.1500
      8 C8        -12.9023   -0.3322   53.0793 C.3     1  ZINC000546142192   -0.0600
      9 C9        -11.5376    0.3008   52.9884 C.ar    1  ZINC000546142192   -0.1000
     10 C10       -11.2536    1.1839   51.9630 C.ar    1  ZINC000546142192   -0.0900
     11 C11       -10.0040    1.7660   51.8772 C.ar    1  ZINC000546142192   -0.1200
     12 C12        -9.0325    1.4636   52.8222 C.ar    1  ZINC000546142192    0.1600
     13 N13        -7.7655    2.0520   52.7384 N.am    1  ZINC000546142192   -0.6900
     14 C14        -6.9041    1.6630   51.7777 C.2     1  ZINC000546142192    0.7100
     15 O15        -7.2276    0.8008   50.9839 O.2     1  ZINC000546142192   -0.5700
     16 N16        -5.6839    2.2297   51.6970 N.am    1  ZINC000546142192   -0.7400
     17 C17        -4.7469    1.8056   50.6538 C.3     1  ZINC000546142192    0.2300
     18 C18        -3.3963    2.4230   50.9104 C.2     1  ZINC000546142192    0.1800
     19 N19        -3.0855    3.1756   51.9302 N.2     1  ZINC000546142192   -0.4700
     20 C20        -1.7999    3.5449   51.8320 C.2     1  ZINC000546142192   -0.0300
     21 C21        -1.2947    3.0004   50.7086 C.2     1  ZINC000546142192   -0.0400
     22 N22        -2.3055    2.2842   50.1264 N.pl3   1  ZINC000546142192   -0.4500
     23 C23        -2.2221    1.5175   48.8808 C.3     1  ZINC000546142192    0.1100
     24 C24        -2.7056    2.3832   47.7157 C.3     1  ZINC000546142192   -0.0900
     25 C25        -2.3072    1.7395   46.4125 C.ar    1  ZINC000546142192   -0.0900
     26 C26        -2.5182    0.3875   46.2165 C.ar    1  ZINC000546142192   -0.1100
     27 C27        -2.1528   -0.2027   45.0210 C.ar    1  ZINC000546142192   -0.1200
     28 C28        -1.5768    0.5591   44.0217 C.ar    1  ZINC000546142192   -0.1200
     29 C29        -1.3667    1.9113   44.2174 C.ar    1  ZINC000546142192   -0.1200
     30 C30        -1.7361    2.5024   45.4112 C.ar    1  ZINC000546142192   -0.1100
     31 C31        -9.3209    0.5764   53.8508 C.ar    1  ZINC000546142192   -0.1500
     32 C32       -10.5740    0.0016   53.9340 C.ar    1  ZINC000546142192   -0.0900
     33 H33       -12.0926   -5.1247   53.1091 H       1  ZINC000546142192    0.0600
     34 H34       -12.6120   -4.7349   54.7663 H       1  ZINC000546142192    0.1000
     35 H35       -13.7075   -4.4334   53.3963 H       1  ZINC000546142192    0.0600
     36 H36       -14.7500   -2.3313   52.9362 H       1  ZINC000546142192    0.0600
     37 H37       -15.1423   -1.0894   51.7230 H       1  ZINC000546142192    0.0800
     38 H38       -14.5708   -2.6928   51.2026 H       1  ZINC000546142192    0.0700
     39 H39       -13.6668    0.4282   52.9200 H       1  ZINC000546142192    0.0800
     40 H40       -13.0317   -0.7766   54.0661 H       1  ZINC000546142192    0.0800
     41 H41       -12.0095    1.4184   51.2281 H       1  ZINC000546142192    0.1300
     42 H42        -9.7827    2.4553   51.0759 H       1  ZINC000546142192    0.1400
     43 H43        -7.5074    2.7399   53.3718 H       1  ZINC000546142192    0.4100
     44 H44        -5.4262    2.9184   52.3295 H       1  ZINC000546142192    0.4000
     45 H45        -4.6578    0.7192   50.6651 H       1  ZINC000546142192    0.0800
     46 H46        -5.1155    2.1298   49.6806 H       1  ZINC000546142192    0.1000
     47 H47        -1.2637    4.1695   52.5312 H       1  ZINC000546142192    0.1700
     48 H48        -0.2850    3.1053   50.3400 H       1  ZINC000546142192    0.1800
     49 H49        -1.1885    1.2183   48.7069 H       1  ZINC000546142192    0.1000
     50 H50        -2.8492    0.6293   48.9583 H       1  ZINC000546142192    0.0900
     51 H51        -3.7908    2.4764   47.7581 H       1  ZINC000546142192    0.0800
     52 H52        -2.2530    3.3723   47.7857 H       1  ZINC000546142192    0.0800
     53 H53        -2.9681   -0.2076   46.9972 H       1  ZINC000546142192    0.1200
     54 H54        -2.3170   -1.2592   44.8681 H       1  ZINC000546142192    0.1200
     55 H55        -1.2907    0.0977   43.0880 H       1  ZINC000546142192    0.1200
     56 H56        -0.9164    2.5064   43.4367 H       1  ZINC000546142192    0.1200
     57 H57        -1.5719    3.5589   45.5642 H       1  ZINC000546142192    0.1200
     58 H58        -8.5674    0.3392   54.5873 H       1  ZINC000546142192    0.1300
     59 H59       -10.7991   -0.6882   54.7340 H       1  ZINC000546142192    0.1300
@<TRIPOS>BOND
     1     1     2    1
     2     1    33    1
     3     1    34    1
     4     1    35    1
     5     2     3    1
     6     3     4    2
     7     3     5    1
     8     5     6    1
     9     5     7    1
    10     5     8    1
    11     7    36    1
    12     7    37    1
    13     7    38    1
    14     8     9    1
    15     8    39    1
    16     8    40    1
    17     9    32   ar
    18     9    10   ar
    19    10    11   ar
    20    10    41    1
    21    11    12   ar
    22    11    42    1
    23    12    13    1
    24    12    31   ar
    25    13    14   am
    26    13    43    1
    27    14    15    2
    28    14    16   am
    29    16    17    1
    30    16    44    1
    31    17    18    1
    32    17    45    1
    33    17    46    1
    34    18    22    1
    35    18    19    2
    36    19    20    1
    37    20    21    2
    38    20    47    1
    39    21    22    1
    40    21    48    1
    41    22    23    1
    42    23    24    1
    43    23    49    1
    44    23    50    1
    45    24    25    1
    46    24    51    1
    47    24    52    1
    48    25    30   ar
    49    25    26   ar
    50    26    27   ar
    51    26    53    1
    52    27    28   ar
    53    27    54    1
    54    28    29   ar
    55    28    55    1
    56    29    30   ar
    57    29    56    1
    58    30    57    1
    59    31    32   ar
    60    31    58    1
    61    32    59    1
@<TRIPOS>SUBSTRUCTURE
     1 ZINC000546142192        1 TEMP              0 ****  ****    0 ROOT


##########                                Name:    ZINC000859496582
##########                DOCK_Rotatable_Bonds:                  10
##########                         Heavy_Atoms:                  26
##########                    Molecular_Weight:             361.438
##########                DOCK_Rotatable_Bonds:                  10
##########                       Formal_Charge:           0.0100006
##########                     HBond_Acceptors:                   6
##########                        HBond_Donors:                   0
##########                         Heavy_Atoms:                  26
##########                          Grid_Score:          -38.551800
##########                     Grid_vdw_energy:          -36.974655
##########                      Grid_es_energy:           -1.577144
##########           Internal_energy_repulsive:           12.817589

@<TRIPOS>MOLECULE
ZINC000859496582
 53 54 1 0 0
SMALL
USER_CHARGES


@<TRIPOS>ATOM
      1 C1         -7.1551    1.0556   51.1562 C.3     1  ZINC000859496582    0.0300
      2 O2         -8.3837    0.6911   51.8389 O.3     1  ZINC000859496582   -0.3600
      3 C3         -8.6670   -0.6180   51.9263 C.2     1  ZINC000859496582    0.4600
      4 O4         -7.9100   -1.4328   51.4540 O.2     1  ZINC000859496582   -0.5100
      5 C5         -9.9292   -1.0716   52.6134 C.3     1  ZINC000859496582   -0.1100
      6 C6        -10.4288   -2.3627   51.9619 C.3     1  ZINC000859496582   -0.1100
      7 C7        -11.8102   -2.7134   52.5185 C.3     1  ZINC000859496582   -0.1200
      8 C8        -11.6509   -3.4751   53.8358 C.3     1  ZINC000859496582    0.0700
      9 O9        -11.5635   -2.5294   54.9342 O.3     1  ZINC000859496582   -0.3500
     10 C10       -11.3936   -3.0385   56.1645 C.2     1  ZINC000859496582    0.4700
     11 O11       -11.2631   -4.2304   56.3124 O.2     1  ZINC000859496582   -0.5000
     12 C12       -11.3656   -2.1231   57.3614 C.3     1  ZINC000859496582   -0.1000
     13 H13       -12.3819   -1.9641   57.7217 H       1  ZINC000859496582    0.1200
     14 C14       -10.7490   -0.7802   56.9631 C.3     1  ZINC000859496582   -0.1100
     15 C15       -10.7501    0.1615   58.1694 C.3     1  ZINC000859496582   -0.1300
     16 C16        -9.8998   -0.4480   59.2886 C.3     1  ZINC000859496582    0.1100
     17 N17       -10.3975   -1.7998   59.5778 N.am    1  ZINC000859496582   -0.6100
     18 C18       -10.7331   -2.1537   60.8342 C.2     1  ZINC000859496582    0.5700
     19 O19       -11.1437   -3.2752   61.0606 O.2     1  ZINC000859496582   -0.5300
     20 C20       -10.6019   -1.1779   61.9371 C.ar    1  ZINC000859496582   -0.1400
     21 C21       -11.6681   -0.3368   62.2595 C.ar    1  ZINC000859496582   -0.0900
     22 C22       -11.5393    0.5712   63.2900 C.ar    1  ZINC000859496582   -0.1200
     23 C23       -10.3562    0.6496   64.0032 C.ar    1  ZINC000859496582   -0.0600
     24 C24       -10.2225    1.6442   65.1274 C.3     1  ZINC000859496582   -0.1200
     25 C25        -9.2956   -0.1816   63.6891 C.ar    1  ZINC000859496582   -0.1200
     26 C26        -9.4133   -1.0977   62.6643 C.ar    1  ZINC000859496582   -0.0600
     27 C27       -10.5230   -2.7588   58.4716 C.3     1  ZINC000859496582    0.1100
     28 H28        -7.1895    0.6942   50.1285 H       1  ZINC000859496582    0.0600
     29 H29        -7.0472    2.1402   51.1566 H       1  ZINC000859496582    0.1000
     30 H30        -6.3062    0.6060   51.6713 H       1  ZINC000859496582    0.0600
     31 H31        -9.7235   -1.2529   53.6683 H       1  ZINC000859496582    0.1100
     32 H32       -10.6920   -0.2986   52.5196 H       1  ZINC000859496582    0.1100
     33 H33       -10.4965   -2.2227   50.8831 H       1  ZINC000859496582    0.0800
     34 H34        -9.7328   -3.1728   52.1802 H       1  ZINC000859496582    0.0800
     35 H35       -12.3743   -1.7975   52.6943 H       1  ZINC000859496582    0.0800
     36 H36       -12.3435   -3.3366   51.8006 H       1  ZINC000859496582    0.0800
     37 H37       -12.5118   -4.1268   53.9852 H       1  ZINC000859496582    0.0700
     38 H38       -10.7421   -4.0759   53.8004 H       1  ZINC000859496582    0.0700
     39 H39        -9.7244   -0.9369   56.6255 H       1  ZINC000859496582    0.0800
     40 H40       -11.3331   -0.3375   56.1563 H       1  ZINC000859496582    0.0800
     41 H41       -10.3323    1.1254   57.8789 H       1  ZINC000859496582    0.0900
     42 H42       -11.7720    0.2990   58.5227 H       1  ZINC000859496582    0.0700
     43 H43        -8.8593   -0.5023   58.9686 H       1  ZINC000859496582    0.0700
     44 H44        -9.9773    0.1692   60.1837 H       1  ZINC000859496582    0.1000
     45 H45       -12.5919   -0.3965   61.7030 H       1  ZINC000859496582    0.1300
     46 H46       -12.3635    1.2226   63.5404 H       1  ZINC000859496582    0.1300
     47 H47       -10.5433    1.1824   66.0611 H       1  ZINC000859496582    0.0800
     48 H48        -9.1817    1.9557   65.2149 H       1  ZINC000859496582    0.0700
     49 H49       -10.8457    2.5138   64.9192 H       1  ZINC000859496582    0.0700
     50 H50        -8.3750   -0.1157   64.2499 H       1  ZINC000859496582    0.1300
     51 H51        -8.5847   -1.7462   62.4203 H       1  ZINC000859496582    0.1300
     52 H52       -11.0112   -3.6658   58.8280 H       1  ZINC000859496582    0.1100
     53 H53        -9.5334   -3.0018   58.0846 H       1  ZINC000859496582    0.0800
@<TRIPOS>BOND
     1     1     2    1
     2     1    28    1
     3     1    29    1
     4     1    30    1
     5     2     3    1
     6     3     4    2
     7     3     5    1
     8     5     6    1
     9     5    31    1
    10     5    32    1
    11     6     7    1
    12     6    33    1
    13     6    34    1
    14     7     8    1
    15     7    35    1
    16     7    36    1
    17     8     9    1
    18     8    37    1
    19     8    38    1
    20     9    10    1
    21    10    11    2
    22    10    12    1
    23    12    13    1
    24    12    27    1
    25    12    14    1
    26    14    15    1
    27    14    39    1
    28    14    40    1
    29    15    16    1
    30    15    41    1
    31    15    42    1
    32    16    17    1
    33    16    43    1
    34    16    44    1
    35    17    18   am
    36    17    27    1
    37    18    19    2
    38    18    20    1
    39    20    26   ar
    40    20    21   ar
    41    21    22   ar
    42    21    45    1
    43    22    23   ar
    44    22    46    1
    45    23    24    1
    46    23    25   ar
    47    24    47    1
    48    24    48    1
    49    24    49    1
    50    25    26   ar
    51    25    50    1
    52    26    51    1
    53    27    52    1
    54    27    53    1
@<TRIPOS>SUBSTRUCTURE
     1 ZINC000859496582        1 TEMP              0 ****  ****    0 ROOT


##########                                Name:    ZINC000572257265
##########                DOCK_Rotatable_Bonds:                  11
##########                         Heavy_Atoms:                  24
##########                    Molecular_Weight:             393.509
##########                DOCK_Rotatable_Bonds:                  11
##########                       Formal_Charge:          -0.0100002
##########                     HBond_Acceptors:                  11
##########                        HBond_Donors:                   3
##########                         Heavy_Atoms:                  24
##########                          Grid_Score:          -38.457443
##########                     Grid_vdw_energy:          -38.777538
##########                      Grid_es_energy:            0.320096
##########           Internal_energy_repulsive:           13.971344

@<TRIPOS>MOLECULE
ZINC000572257265
 43 43 1 0 0
SMALL
USER_CHARGES


@<TRIPOS>ATOM
      1 C1        -10.4663   -0.4110   52.8093 C.3     1  ZINC000572257265   -0.1300
      2 S2        -11.4389   -1.1587   54.1456 S.3     1  ZINC000572257265   -0.2200
      3 C3        -11.2461   -2.9372   53.8447 C.3     1  ZINC000572257265   -0.1300
      4 C4        -12.5259   -3.4894   53.2138 C.3     1  ZINC000572257265    0.1500
      5 C5        -12.9379   -2.6030   52.0367 C.3     1  ZINC000572257265   -0.1500
      6 O6        -12.2919   -4.8202   52.7489 O.3     1  ZINC000572257265   -0.5400
      7 C7        -13.6443   -3.5032   54.2578 C.3     1  ZINC000572257265    0.0900
      8 N8        -13.8173   -4.8646   54.7702 N.am    1  ZINC000572257265   -1.1100
      9 S9        -14.1385   -5.1104   56.3761 S.o2    1  ZINC000572257265    2.6900
     10 O10       -15.2718   -4.3110   56.6855 O.2     1  ZINC000572257265   -0.9400
     11 O11       -14.0988   -6.5158   56.5826 O.2     1  ZINC000572257265   -0.9500
     12 C12       -12.7897   -4.4354   57.2869 C.ar    1  ZINC000572257265   -0.6300
     13 C13       -12.8095   -3.1070   57.6688 C.ar    1  ZINC000572257265   -0.0400
     14 C14       -11.7513   -2.5773   58.3834 C.ar    1  ZINC000572257265   -0.0400
     15 C15       -10.6734   -3.3763   58.7163 C.ar    1  ZINC000572257265   -0.6300
     16 S16        -9.3242   -2.7010   59.6265 S.o2    1  ZINC000572257265    2.7000
     17 O17        -8.4412   -3.7813   59.8958 O.2     1  ZINC000572257265   -0.9400
     18 O18        -8.9249   -1.5238   58.9381 O.2     1  ZINC000572257265   -0.9400
     19 N19        -9.9192   -2.2073   61.0910 N.am    1  ZINC000572257265   -1.1200
     20 C20       -10.9742   -1.1925   61.1486 C.3     1  ZINC000572257265    0.2200
     21 C21       -10.9106   -0.4915   62.4414 C.1     1  ZINC000572257265    0.1900
     22 N22       -10.8616    0.0496   63.4391 N.1     1  ZINC000572257265   -0.3900
     23 C23       -10.6541   -4.7050   58.3355 C.ar    1  ZINC000572257265   -0.0400
     24 C24       -11.7141   -5.2356   57.6242 C.ar    1  ZINC000572257265   -0.0400
     25 H25       -10.8739   -0.7197   51.8466 H       1  ZINC000572257265    0.0800
     26 H26       -10.5108    0.6750   52.8913 H       1  ZINC000572257265    0.1000
     27 H27        -9.4297   -0.7391   52.8868 H       1  ZINC000572257265    0.0800
     28 H28       -10.4072   -3.1025   53.1687 H       1  ZINC000572257265    0.0900
     29 H29       -11.0575   -3.4471   54.7894 H       1  ZINC000572257265    0.0900
     30 H30       -12.1412   -2.5933   51.2929 H       1  ZINC000572257265    0.0800
     31 H31       -13.8497   -2.9964   51.5873 H       1  ZINC000572257265    0.0700
     32 H32       -13.1164   -1.5878   52.3913 H       1  ZINC000572257265    0.0800
     33 H33       -12.8758   -5.0935   52.0282 H       1  ZINC000572257265    0.3800
     34 H34       -13.3828   -2.8362   55.0793 H       1  ZINC000572257265    0.0900
     35 H35       -14.5740   -3.1669   53.7987 H       1  ZINC000572257265    0.0800
     36 H36       -13.7436   -5.6222   54.1688 H       1  ZINC000572257265    0.4300
     37 H37       -13.6516   -2.4828   57.4088 H       1  ZINC000572257265    0.1500
     38 H38       -11.7665   -1.5393   58.6811 H       1  ZINC000572257265    0.1500
     39 H39        -9.5692   -2.5901   61.9106 H       1  ZINC000572257265    0.4300
     40 H40       -10.8336   -0.4759   60.3394 H       1  ZINC000572257265    0.1100
     41 H41       -11.9468   -1.6732   61.0433 H       1  ZINC000572257265    0.1300
     42 H42        -9.8122   -5.3292   58.5959 H       1  ZINC000572257265    0.1600
     43 H43       -11.6991   -6.2737   57.3268 H       1  ZINC000572257265    0.1500
@<TRIPOS>BOND
     1     1     2    1
     2     1    25    1
     3     1    26    1
     4     1    27    1
     5     2     3    1
     6     3     4    1
     7     3    28    1
     8     3    29    1
     9     4     5    1
    10     4     6    1
    11     4     7    1
    12     5    30    1
    13     5    31    1
    14     5    32    1
    15     6    33    1
    16     7     8    1
    17     7    34    1
    18     7    35    1
    19     8     9   am
    20     8    36    1
    21     9    10    2
    22     9    11    2
    23     9    12    1
    24    12    24   ar
    25    12    13   ar
    26    13    14   ar
    27    13    37    1
    28    14    15   ar
    29    14    38    1
    30    15    16    1
    31    15    23   ar
    32    16    17    2
    33    16    18    2
    34    16    19   am
    35    19    20    1
    36    19    39    1
    37    20    21    1
    38    20    40    1
    39    20    41    1
    40    21    22    3
    41    23    24   ar
    42    23    42    1
    43    24    43    1
@<TRIPOS>SUBSTRUCTURE
     1 ZINC000572257265        1 TEMP              0 ****  ****    0 ROOT


##########                                Name:    ZINC000508782983
##########                DOCK_Rotatable_Bonds:                   9
##########                         Heavy_Atoms:                  27
##########                    Molecular_Weight:             373.458
##########                DOCK_Rotatable_Bonds:                   9
##########                       Formal_Charge:          -0.0200006
##########                     HBond_Acceptors:                   9
##########                        HBond_Donors:                   2
##########                         Heavy_Atoms:                  27
##########                          Grid_Score:          -38.440655
##########                     Grid_vdw_energy:          -37.140537
##########                      Grid_es_energy:           -1.300117
##########           Internal_energy_repulsive:           17.386381

@<TRIPOS>MOLECULE
ZINC000508782983
 54 56 1 0 0
SMALL
USER_CHARGES


@<TRIPOS>ATOM
      1 C1        -16.9066   -1.2402   51.9151 C.3     1  ZINC000508782983   -0.1500
      2 C2        -15.4165   -1.5657   52.0352 C.3     1  ZINC000508782983   -0.1100
      3 C3        -14.7709   -0.6298   53.0591 C.3     1  ZINC000508782983   -0.1500
      4 C4        -15.2464   -3.0161   52.4917 C.3     1  ZINC000508782983    0.1000
      5 N5        -13.8195   -3.3282   52.6055 N.pl3   1  ZINC000508782983   -0.4400
      6 C6        -12.8105   -2.8057   51.8423 C.2     1  ZINC000508782983   -0.0400
      7 C7        -11.6639   -3.3603   52.2796 C.2     1  ZINC000508782983   -0.0300
      8 N8        -11.9647   -4.1985   53.2826 N.2     1  ZINC000508782983   -0.4700
      9 C9        -13.2535   -4.1806   53.4866 C.2     1  ZINC000508782983    0.1700
     10 C10       -13.9893   -4.9853   54.5269 C.3     1  ZINC000508782983    0.2100
     11 N11       -14.1530   -4.1811   55.7405 N.am    1  ZINC000508782983   -0.6900
     12 C12       -14.0256   -4.7565   56.9526 C.2     1  ZINC000508782983    0.5100
     13 O13       -13.7738   -5.9405   57.0386 O.2     1  ZINC000508782983   -0.5100
     14 C14       -14.1944   -3.9365   58.1906 C.2     1  ZINC000508782983    0.5100
     15 O15       -15.2260   -4.0025   58.8260 O.2     1  ZINC000508782983   -0.5200
     16 N16       -13.2008   -3.1238   58.6012 N.am    1  ZINC000508782983   -0.5800
     17 C17       -13.3437   -2.3129   59.8200 C.3     1  ZINC000508782983    0.0800
     18 C18       -12.1182   -2.5498   60.7088 C.3     1  ZINC000508782983    0.0400
     19 N19       -10.8975   -2.2944   59.9324 N.3     1  ZINC000508782983   -0.5400
     20 C20        -9.7072   -2.3428   60.7920 C.3     1  ZINC000508782983    0.1400
     21 C21        -9.7312   -1.1790   61.7492 C.2     1  ZINC000508782983    0.2100
     22 N22       -10.2752   -0.0154   61.5184 N.2     1  ZINC000508782983   -0.4900
     23 C23       -10.1062    0.7723   62.5907 C.2     1  ZINC000508782983   -0.0300
     24 C24        -9.4320    0.0703   63.5213 C.2     1  ZINC000508782983   -0.0500
     25 N25        -9.1985   -1.1695   62.9901 N.pl3   1  ZINC000508782983   -0.5600
     26 C26       -10.7742   -3.2331   58.8092 C.3     1  ZINC000508782983    0.0400
     27 C27       -11.9423   -3.0288   57.8458 C.3     1  ZINC000508782983    0.1100
     28 H28       -17.0277   -0.2069   51.5899 H       1  ZINC000508782983    0.0700
     29 H29       -17.3665   -1.9069   51.1857 H       1  ZINC000508782983    0.0600
     30 H30       -17.3871   -1.3748   52.8841 H       1  ZINC000508782983    0.0600
     31 H31       -14.9358   -1.4310   51.0662 H       1  ZINC000508782983    0.0800
     32 H32       -15.3013   -0.7081   54.0081 H       1  ZINC000508782983    0.0600
     33 H33       -13.7276   -0.9114   53.2016 H       1  ZINC000508782983    0.0600
     34 H34       -14.8238    0.3969   52.6969 H       1  ZINC000508782983    0.0600
     35 H35       -15.7261   -3.1504   53.4611 H       1  ZINC000508782983    0.1000
     36 H36       -15.7071   -3.6827   51.7628 H       1  ZINC000508782983    0.0900
     37 H37       -12.9140   -2.0870   51.0427 H       1  ZINC000508782983    0.1800
     38 H38       -10.6755   -3.1643   51.8911 H       1  ZINC000508782983    0.1700
     39 H39       -14.9697   -5.2664   54.1424 H       1  ZINC000508782983    0.0900
     40 H40       -13.4193   -5.8844   54.7611 H       1  ZINC000508782983    0.1100
     41 H41       -14.3531   -3.2344   55.6717 H       1  ZINC000508782983    0.4200
     42 H42       -13.4039   -1.2579   59.5528 H       1  ZINC000508782983    0.0800
     43 H43       -14.2462   -2.6103   60.3539 H       1  ZINC000508782983    0.1400
     44 H44       -12.1531   -1.8749   61.5640 H       1  ZINC000508782983    0.0900
     45 H45       -12.1171   -3.5819   61.0593 H       1  ZINC000508782983    0.0400
     46 H46        -9.7031   -3.2761   61.3549 H       1  ZINC000508782983    0.0900
     47 H47        -8.8106   -2.2869   60.1746 H       1  ZINC000508782983    0.0700
     48 H48       -10.4506    1.7911   62.6903 H       1  ZINC000508782983    0.1700
     49 H49        -9.1360    0.4173   64.5003 H       1  ZINC000508782983    0.1800
     50 H50        -8.7325   -1.9023   63.4221 H       1  ZINC000508782983    0.4200
     51 H51        -9.8346   -3.0537   58.2868 H       1  ZINC000508782983    0.1100
     52 H52       -10.7918   -4.2557   59.1862 H       1  ZINC000508782983    0.0400
     53 H53       -11.9184   -3.7972   57.0732 H       1  ZINC000508782983    0.1000
     54 H54       -11.8709   -2.0424   57.3876 H       1  ZINC000508782983    0.0800
@<TRIPOS>BOND
     1     1     2    1
     2     1    28    1
     3     1    29    1
     4     1    30    1
     5     2     3    1
     6     2     4    1
     7     2    31    1
     8     3    32    1
     9     3    33    1
    10     3    34    1
    11     4     5    1
    12     4    35    1
    13     4    36    1
    14     5     9    1
    15     5     6    1
    16     6     7    2
    17     6    37    1
    18     7     8    1
    19     7    38    1
    20     8     9    2
    21     9    10    1
    22    10    11    1
    23    10    39    1
    24    10    40    1
    25    11    12   am
    26    11    41    1
    27    12    13    2
    28    12    14    1
    29    14    15    2
    30    14    16   am
    31    16    27    1
    32    16    17    1
    33    17    18    1
    34    17    42    1
    35    17    43    1
    36    18    19    1
    37    18    44    1
    38    18    45    1
    39    19    20    1
    40    19    26    1
    41    20    21    1
    42    20    46    1
    43    20    47    1
    44    21    25    1
    45    21    22    2
    46    22    23    1
    47    23    24    2
    48    23    48    1
    49    24    25    1
    50    24    49    1
    51    25    50    1
    52    26    27    1
    53    26    51    1
    54    26    52    1
    55    27    53    1
    56    27    54    1
@<TRIPOS>SUBSTRUCTURE
     1 ZINC000508782983        1 TEMP              0 ****  ****    0 ROOT


##########                                Name:    ZINC001109848453
##########                DOCK_Rotatable_Bonds:                   8
##########                         Heavy_Atoms:                  24
##########                    Molecular_Weight:             328.337
##########                DOCK_Rotatable_Bonds:                   8
##########                       Formal_Charge:          0.00999966
##########                     HBond_Acceptors:                  11
##########                        HBond_Donors:                   2
##########                         Heavy_Atoms:                  24
##########                          Grid_Score:          -38.438576
##########                     Grid_vdw_energy:          -37.418510
##########                      Grid_es_energy:           -1.020064
##########           Internal_energy_repulsive:            9.335011

@<TRIPOS>MOLECULE
ZINC001109848453
 40 43 1 0 0
SMALL
USER_CHARGES


@<TRIPOS>ATOM
      1 O1        -11.7561   -1.7226   54.2107 O.2     1  ZINC001109848453   -0.5000
      2 C2        -11.5746   -2.7971   53.6783 C.2     1  ZINC001109848453    0.5000
      3 C3        -10.9684   -2.8623   52.3001 C.3     1  ZINC001109848453    0.1100
      4 N4         -9.9187   -1.8475   52.1798 N.pl3   1  ZINC001109848453   -0.3700
      5 C5        -10.0067   -0.5521   52.5280 C.2     1  ZINC001109848453    0.2600
      6 N6         -8.8588    0.0180   52.2651 N.2     1  ZINC001109848453   -0.5400
      7 C7         -8.0170   -0.8775   51.7505 C.2     1  ZINC001109848453    0.2000
      8 N8         -8.6186   -2.0360   51.6834 N.2     1  ZINC001109848453   -0.2900
      9 N9        -11.9099   -3.9331   54.3214 N.am    1  ZINC001109848453   -0.7300
     10 C10       -12.4992   -3.8697   55.6611 C.3     1  ZINC001109848453    0.1700
     11 H11       -13.0711   -2.9475   55.7633 H       1  ZINC001109848453    0.1000
     12 C12       -11.3856   -3.8981   56.7099 C.3     1  ZINC001109848453    0.1200
     13 N13       -11.9416   -3.5565   58.0217 N.pl3   1  ZINC001109848453   -0.6800
     14 C14       -11.0987   -3.1804   59.0544 C.2     1  ZINC001109848453    0.4900
     15 N15        -9.9239   -3.7620   59.2000 N.2     1  ZINC001109848453   -0.5300
     16 C16        -9.0993   -3.4107   60.1900 C.2     1  ZINC001109848453    0.1400
     17 C17        -9.4336   -2.4512   61.0774 C.2     1  ZINC001109848453   -0.0500
     18 N18       -10.6394   -1.8152   60.9737 N.pl3   1  ZINC001109848453   -0.1800
     19 N19       -11.2249   -0.8888   61.6462 N.2     1  ZINC001109848453   -0.1000
     20 N20       -12.3759   -0.6455   61.1219 N.2     1  ZINC001109848453   -0.0400
     21 N21       -12.5643   -1.4075   60.0978 N.2     1  ZINC001109848453   -0.2600
     22 C22       -11.4876   -2.1646   59.9592 C.2     1  ZINC001109848453    0.1000
     23 C23       -13.4254   -5.0699   55.8682 C.3     1  ZINC001109848453   -0.1800
     24 C24       -14.7471   -4.8244   56.5988 C.3     1  ZINC001109848453   -0.1700
     25 C25       -14.7435   -5.0872   55.0915 C.3     1  ZINC001109848453   -0.1700
     26 H26       -10.5382   -3.8508   52.1387 H       1  ZINC001109848453    0.1300
     27 H27       -11.7410   -2.6760   51.5541 H       1  ZINC001109848453    0.1200
     28 H28       -10.8739   -0.0663   52.9505 H       1  ZINC001109848453    0.2200
     29 H29        -7.0009   -0.6792   51.4427 H       1  ZINC001109848453    0.2200
     30 H30       -11.7611   -4.7926   53.8970 H       1  ZINC001109848453    0.4000
     31 H31       -10.9486   -4.8958   56.7491 H       1  ZINC001109848453    0.1000
     32 H32       -10.6157   -3.1745   56.4421 H       1  ZINC001109848453    0.0900
     33 H33       -12.8999   -3.5939   58.1669 H       1  ZINC001109848453    0.4200
     34 H34        -8.1440   -3.9059   60.2825 H       1  ZINC001109848453    0.2000
     35 H35        -8.7493   -2.1858   61.8696 H       1  ZINC001109848453    0.1900
     36 H36       -12.9272   -6.0248   56.0356 H       1  ZINC001109848453    0.1100
     37 H37       -15.1187   -5.6178   57.2472 H       1  ZINC001109848453    0.1000
     38 H38       -14.9567   -3.8079   56.9319 H       1  ZINC001109848453    0.1000
     39 H39       -14.9508   -4.2437   54.4330 H       1  ZINC001109848453    0.1200
     40 H40       -15.1127   -6.0536   54.7483 H       1  ZINC001109848453    0.0900
@<TRIPOS>BOND
     1     1     2    2
     2     2     3    1
     3     2     9   am
     4     3     4    1
     5     3    26    1
     6     3    27    1
     7     4     8    1
     8     4     5    1
     9     5     6    2
    10     5    28    1
    11     6     7    1
    12     7     8    2
    13     7    29    1
    14     9    10    1
    15     9    30    1
    16    10    11    1
    17    10    12    1
    18    10    23    1
    19    12    13    1
    20    12    31    1
    21    12    32    1
    22    13    14    1
    23    13    33    1
    24    14    22    1
    25    14    15    2
    26    15    16    1
    27    16    17    2
    28    16    34    1
    29    17    18    1
    30    17    35    1
    31    18    22    1
    32    18    19    1
    33    19    20    2
    34    20    21    1
    35    21    22    2
    36    23    25    1
    37    23    24    1
    38    23    36    1
    39    24    25    1
    40    24    37    1
    41    24    38    1
    42    25    39    1
    43    25    40    1
@<TRIPOS>SUBSTRUCTURE
     1 ZINC001109848453        1 TEMP              0 ****  ****    0 ROOT


##########                                Name:    ZINC001191196975
##########                DOCK_Rotatable_Bonds:                  14
##########                         Heavy_Atoms:                  24
##########                    Molecular_Weight:             339.438
##########                DOCK_Rotatable_Bonds:                  14
##########                       Formal_Charge:          0.00999969
##########                     HBond_Acceptors:                   8
##########                        HBond_Donors:                   4
##########                         Heavy_Atoms:                  24
##########                          Grid_Score:          -38.430622
##########                     Grid_vdw_energy:          -36.002655
##########                      Grid_es_energy:           -2.427969
##########           Internal_energy_repulsive:           13.496327

@<TRIPOS>MOLECULE
ZINC001191196975
 53 53 1 0 0
SMALL
USER_CHARGES


@<TRIPOS>ATOM
      1 C1         -7.2292    3.8344   57.6203 C.2     1  ZINC001191196975   -0.1600
      2 C2         -7.6170    2.6137   57.3457 C.2     1  ZINC001191196975   -0.1800
      3 C3         -9.0763    2.3221   57.1079 C.3     1  ZINC001191196975    0.1500
      4 N4         -9.6911    1.8586   58.3542 N.am    1  ZINC001191196975   -0.7300
      5 C5        -10.8575    1.1843   58.3201 C.2     1  ZINC001191196975    0.5100
      6 O6        -11.3988    0.9624   57.2577 O.2     1  ZINC001191196975   -0.5200
      7 C7        -11.4890    0.7059   59.6021 C.3     1  ZINC001191196975    0.0300
      8 N8        -10.4921   -0.0247   60.3961 N.3     1  ZINC001191196975   -0.5100
      9 C9        -10.4571    0.4682   61.7796 C.3     1  ZINC001191196975    0.0200
     10 C10       -10.7467   -1.4710   60.3590 C.3     1  ZINC001191196975    0.0700
     11 H11       -11.6791   -1.7147   60.8680 H       1  ZINC001191196975    0.0600
     12 C12        -9.5578   -2.2607   60.9675 C.3     1  ZINC001191196975   -0.1200
     13 C13        -9.6531   -3.6287   60.2596 C.3     1  ZINC001191196975    0.1000
     14 N14       -10.4042   -3.4235   59.0125 N.am    1  ZINC001191196975   -0.6200
     15 C15       -10.7203   -4.3818   58.1191 C.2     1  ZINC001191196975    0.5300
     16 O16       -10.3798   -5.5293   58.3147 O.2     1  ZINC001191196975   -0.5400
     17 C17       -11.4969   -4.0276   56.8772 C.3     1  ZINC001191196975   -0.1300
     18 C18       -12.9463   -4.4923   57.0320 C.3     1  ZINC001191196975   -0.1000
     19 C19       -13.8154   -3.8144   55.9710 C.3     1  ZINC001191196975   -0.1300
     20 C20       -13.4935   -4.4029   54.5958 C.3     1  ZINC001191196975    0.1400
     21 N21       -12.6351   -3.4746   53.8560 N.am    1  ZINC001191196975   -0.7500
     22 C22       -11.8376   -3.9334   52.8712 C.2     1  ZINC001191196975    0.7000
     23 N23       -11.0490   -3.0791   52.1895 N.am    1  ZINC001191196975   -0.8700
     24 O24       -11.8295   -5.1182   52.5978 O.2     1  ZINC001191196975   -0.5900
     25 C25       -10.7563   -1.9957   58.9014 C.3     1  ZINC001191196975    0.1100
     26 H26        -7.9553    4.6319   57.6764 H       1  ZINC001191196975    0.1000
     27 H27        -6.1839    4.0425   57.7950 H       1  ZINC001191196975    0.1000
     28 H28        -6.8909    1.8161   57.2896 H       1  ZINC001191196975    0.1200
     29 H29        -9.5778    3.2292   56.7707 H       1  ZINC001191196975    0.0800
     30 H30        -9.1727    1.5489   56.3457 H       1  ZINC001191196975    0.0700
     31 H31        -9.2588    2.0372   59.2039 H       1  ZINC001191196975    0.4000
     32 H32       -11.8498    1.5627   60.1712 H       1  ZINC001191196975    0.0700
     33 H33       -12.3246    0.0452   59.3711 H       1  ZINC001191196975    0.1100
     34 H34       -11.4611    0.4354   62.2026 H       1  ZINC001191196975    0.0200
     35 H35        -9.7924   -0.1600   62.3724 H       1  ZINC001191196975    0.0700
     36 H36       -10.0918    1.4952   61.7903 H       1  ZINC001191196975    0.0900
     37 H37        -8.6114   -1.7719   60.7363 H       1  ZINC001191196975    0.0900
     38 H38        -9.6814   -2.3744   62.0445 H       1  ZINC001191196975    0.0800
     39 H39        -8.6534   -3.9995   60.0335 H       1  ZINC001191196975    0.0700
     40 H40       -10.1792   -4.3399   60.8965 H       1  ZINC001191196975    0.0700
     41 H41       -11.4752   -2.9476   56.7309 H       1  ZINC001191196975    0.0900
     42 H42       -11.0476   -4.5201   56.0149 H       1  ZINC001191196975    0.0900
     43 H43       -12.9965   -5.5738   56.9059 H       1  ZINC001191196975    0.0800
     44 H44       -13.3096   -4.2250   58.0243 H       1  ZINC001191196975    0.0800
     45 H45       -14.8675   -3.9830   56.2011 H       1  ZINC001191196975    0.0700
     46 H46       -13.6119   -2.7436   55.9645 H       1  ZINC001191196975    0.0700
     47 H47       -12.9773   -5.3548   54.7198 H       1  ZINC001191196975    0.0700
     48 H48       -14.4194   -4.5610   54.0426 H       1  ZINC001191196975    0.0700
     49 H49       -12.6406   -2.5296   54.0749 H       1  ZINC001191196975    0.4000
     50 H50       -10.4758   -3.4092   51.4799 H       1  ZINC001191196975    0.4000
     51 H51       -11.0546   -2.1342   52.4085 H       1  ZINC001191196975    0.4200
     52 H52       -11.7477   -1.8824   58.4629 H       1  ZINC001191196975    0.0800
     53 H53       -10.0136   -1.4672   58.3038 H       1  ZINC001191196975    0.0800
@<TRIPOS>BOND
     1     1     2    2
     2     1    26    1
     3     1    27    1
     4     2     3    1
     5     2    28    1
     6     3     4    1
     7     3    29    1
     8     3    30    1
     9     4     5   am
    10     4    31    1
    11     5     6    2
    12     5     7    1
    13     7     8    1
    14     7    32    1
    15     7    33    1
    16     8     9    1
    17     8    10    1
    18     9    34    1
    19     9    35    1
    20     9    36    1
    21    10    11    1
    22    10    25    1
    23    10    12    1
    24    12    13    1
    25    12    37    1
    26    12    38    1
    27    13    14    1
    28    13    39    1
    29    13    40    1
    30    14    15   am
    31    14    25    1
    32    15    16    2
    33    15    17    1
    34    17    18    1
    35    17    41    1
    36    17    42    1
    37    18    19    1
    38    18    43    1
    39    18    44    1
    40    19    20    1
    41    19    45    1
    42    19    46    1
    43    20    21    1
    44    20    47    1
    45    20    48    1
    46    21    22   am
    47    21    49    1
    48    22    23   am
    49    22    24    2
    50    23    50    1
    51    23    51    1
    52    25    52    1
    53    25    53    1
@<TRIPOS>SUBSTRUCTURE
     1 ZINC001191196975        1 TEMP              0 ****  ****    0 ROOT


##########                                Name:    ZINC000826435081
##########                DOCK_Rotatable_Bonds:                   7
##########                         Heavy_Atoms:                  28
##########                    Molecular_Weight:             388.361
##########                DOCK_Rotatable_Bonds:                   7
##########                       Formal_Charge:           0.0099996
##########                     HBond_Acceptors:                  12
##########                        HBond_Donors:                   3
##########                         Heavy_Atoms:                  28
##########                          Grid_Score:          -38.423847
##########                     Grid_vdw_energy:          -37.195930
##########                      Grid_es_energy:           -1.227916
##########           Internal_energy_repulsive:            5.157012

@<TRIPOS>MOLECULE
ZINC000826435081
 45 48 1 0 0
SMALL
USER_CHARGES


@<TRIPOS>ATOM
      1 O1        -11.8779   -1.9808   60.7299 O.2     1  ZINC000826435081   -0.5700
      2 C2        -10.6700   -1.8584   60.7977 C.2     1  ZINC000826435081    0.7200
      3 N3        -10.1235   -1.0912   61.7617 N.am    1  ZINC000826435081   -0.7300
      4 C4        -10.9849   -0.3999   62.7240 C.3     1  ZINC000826435081    0.1500
      5 C5        -10.2120    0.7562   63.3619 C.3     1  ZINC000826435081    0.0400
      6 H6         -9.7209    1.3397   62.5830 H       1  ZINC000826435081    0.0800
      7 C7         -9.1592    0.1987   64.3242 C.3     1  ZINC000826435081    0.0300
      8 O8         -8.5178    1.2852   64.9990 O.3     1  ZINC000826435081   -0.3800
      9 C9         -9.4226    2.1217   65.7263 C.3     1  ZINC000826435081    0.0200
     10 C10       -10.4753    2.6792   64.7639 C.3     1  ZINC000826435081    0.0200
     11 O11       -11.1169    1.5936   64.0878 O.3     1  ZINC000826435081   -0.3700
     12 N12        -9.8775   -2.4945   59.9124 N.am    1  ZINC000826435081   -0.6400
     13 C13       -10.4456   -3.2920   58.9102 C.2     1  ZINC000826435081    0.3300
     14 N14       -11.1742   -2.8635   57.9064 N.2     1  ZINC000826435081   -0.2800
     15 N15       -11.5487   -3.9700   57.1333 N.pl3   1  ZINC000826435081   -0.3300
     16 C16       -12.3306   -3.9371   55.9733 C.ar    1  ZINC000826435081    0.2200
     17 C17       -11.7250   -3.9291   54.7257 C.ar    1  ZINC000826435081   -0.1300
     18 C18       -12.4976   -3.8966   53.5804 C.ar    1  ZINC000826435081   -0.0500
     19 C19       -13.8776   -3.8714   53.6691 C.ar    1  ZINC000826435081   -0.1500
     20 C20       -14.4962   -3.8790   54.9060 C.ar    1  ZINC000826435081    0.1500
     21 F21       -15.8444   -3.8548   54.9884 F       1  ZINC000826435081   -0.1100
     22 C22       -13.7263   -3.9181   56.0678 C.ar    1  ZINC000826435081   -0.0500
     23 C23       -14.3836   -3.9265   57.3977 C.2     1  ZINC000826435081    0.2100
     24 N24       -14.6485   -2.8780   58.1520 N.2     1  ZINC000826435081   -0.2800
     25 N25       -15.2220   -3.3000   59.2262 N.pl3   1  ZINC000826435081   -0.2300
     26 N26       -15.3289   -4.5818   59.1767 N.2     1  ZINC000826435081   -0.0500
     27 N27       -14.8293   -5.0013   58.0641 N.2     1  ZINC000826435081   -0.2300
     28 C28       -11.0189   -5.0803   57.7085 C.2     1  ZINC000826435081    0.0700
     29 C29       -10.3286   -4.6878   58.8032 C.2     1  ZINC000826435081   -0.2400
     30 H30        -9.1597   -0.9968   61.8183 H       1  ZINC000826435081    0.4000
     31 H31       -11.8636   -0.0098   62.2103 H       1  ZINC000826435081    0.0800
     32 H32       -11.2980   -1.0992   63.4994 H       1  ZINC000826435081    0.0900
     33 H33        -9.6413   -0.4503   65.0552 H       1  ZINC000826435081    0.0700
     34 H34        -8.4178   -0.3703   63.7634 H       1  ZINC000826435081    0.1100
     35 H35        -9.9136    1.5373   66.5043 H       1  ZINC000826435081    0.0600
     36 H36        -8.8719    2.9453   66.1806 H       1  ZINC000826435081    0.1100
     37 H37       -11.2167    3.2482   65.3247 H       1  ZINC000826435081    0.1100
     38 H38        -9.9933    3.3283   64.0329 H       1  ZINC000826435081    0.0600
     39 H39        -8.9138   -2.4000   59.9689 H       1  ZINC000826435081    0.4100
     40 H40       -10.6479   -3.9479   54.6492 H       1  ZINC000826435081    0.1500
     41 H41       -12.0213   -3.8904   52.6110 H       1  ZINC000826435081    0.1500
     42 H42       -14.4742   -3.8453   52.7692 H       1  ZINC000826435081    0.1500
     43 H43       -15.5254   -2.7395   59.9574 H       1  ZINC000826435081    0.4800
     44 H44       -11.1255   -6.0945   57.3529 H       1  ZINC000826435081    0.1800
     45 H45        -9.7891   -5.3339   59.4798 H       1  ZINC000826435081    0.1800
@<TRIPOS>BOND
     1     1     2    2
     2     2     3   am
     3     2    12   am
     4     3     4    1
     5     3    30    1
     6     4     5    1
     7     4    31    1
     8     4    32    1
     9     5     6    1
    10     5    11    1
    11     5     7    1
    12     7     8    1
    13     7    33    1
    14     7    34    1
    15     8     9    1
    16     9    10    1
    17     9    35    1
    18     9    36    1
    19    10    11    1
    20    10    37    1
    21    10    38    1
    22    12    13    1
    23    12    39    1
    24    13    29    1
    25    13    14    2
    26    14    15    1
    27    15    16    1
    28    15    28    1
    29    16    22   ar
    30    16    17   ar
    31    17    18   ar
    32    17    40    1
    33    18    19   ar
    34    18    41    1
    35    19    20   ar
    36    19    42    1
    37    20    21    1
    38    20    22   ar
    39    22    23    1
    40    23    27    1
    41    23    24    2
    42    24    25    1
    43    25    26    1
    44    25    43    1
    45    26    27    2
    46    28    29    2
    47    28    44    1
    48    29    45    1
@<TRIPOS>SUBSTRUCTURE
     1 ZINC000826435081        1 TEMP              0 ****  ****    0 ROOT


##########                                Name:    ZINC001289410668
##########                DOCK_Rotatable_Bonds:                  11
##########                         Heavy_Atoms:                  26
##########                    Molecular_Weight:             362.515
##########                DOCK_Rotatable_Bonds:                  11
##########                       Formal_Charge:          -0.0400008
##########                     HBond_Acceptors:                   6
##########                        HBond_Donors:                   1
##########                         Heavy_Atoms:                  26
##########                          Grid_Score:          -38.362888
##########                     Grid_vdw_energy:          -37.035919
##########                      Grid_es_energy:           -1.326970
##########           Internal_energy_repulsive:           16.774031

@<TRIPOS>MOLECULE
ZINC001289410668
 60 61 1 0 0
SMALL
USER_CHARGES


@<TRIPOS>ATOM
      1 C1        -10.8259    4.8544   66.1675 C.3     1  ZINC001289410668   -0.1500
      2 C2        -10.1512    3.7121   65.4052 C.3     1  ZINC001289410668   -0.1300
      3 C3         -9.8789    2.5507   66.3633 C.3     1  ZINC001289410668   -0.1200
      4 C4         -9.2030    1.4088   65.6014 C.3     1  ZINC001289410668   -0.1200
      5 C5        -10.1770    0.8377   64.5690 C.3     1  ZINC001289410668   -0.1100
      6 C6         -9.5389   -0.3696   63.8791 C.3     1  ZINC001289410668   -0.1400
      7 C7        -10.3686   -0.7616   62.6836 C.2     1  ZINC001289410668    0.5100
      8 O8        -11.5560   -0.5158   62.6627 O.2     1  ZINC001289410668   -0.5300
      9 N9         -9.7910   -1.3853   61.6377 N.am    1  ZINC001289410668   -0.7200
     10 C10       -10.5978   -1.7679   60.4763 C.3     1  ZINC001289410668    0.1400
     11 H11       -11.6514   -1.8476   60.7444 H       1  ZINC001289410668    0.1100
     12 C12       -10.0820   -3.0887   59.8528 C.3     1  ZINC001289410668    0.0800
     13 N13       -10.5170   -3.0367   58.4451 N.am    1  ZINC001289410668   -0.6200
     14 C14       -10.7107   -4.1022   57.6428 C.2     1  ZINC001289410668    0.5100
     15 O15       -10.5229   -5.2227   58.0670 O.2     1  ZINC001289410668   -0.5100
     16 C16       -11.1606   -3.9011   56.2187 C.3     1  ZINC001289410668    0.0900
     17 N17       -12.5759   -4.2599   56.0984 N.pl3   1  ZINC001289410668   -0.4500
     18 C18       -13.3394   -4.8831   57.0484 C.2     1  ZINC001289410668   -0.0500
     19 C19       -14.5741   -5.0193   56.5281 C.2     1  ZINC001289410668   -0.0200
     20 N20       -14.5647   -4.4936   55.2942 N.2     1  ZINC001289410668   -0.4800
     21 C21       -13.3726   -4.0322   55.0320 C.2     1  ZINC001289410668    0.2300
     22 C22       -12.9519   -3.3644   53.7482 C.3     1  ZINC001289410668   -0.0100
     23 C23       -12.0795   -4.3240   52.9362 C.3     1  ZINC001289410668   -0.1400
     24 C24       -14.1940   -2.9931   52.9358 C.3     1  ZINC001289410668   -0.1400
     25 C25       -10.7053   -1.6298   58.0616 C.3     1  ZINC001289410668    0.1100
     26 C26       -10.3958   -0.7698   59.3057 C.3     1  ZINC001289410668   -0.1100
     27 H27        -9.3671   -0.4101   59.2796 H       1  ZINC001289410668    0.0900
     28 C28       -11.3743    0.4016   59.4110 C.3     1  ZINC001289410668   -0.1400
     29 H29       -11.0199    5.6818   65.4850 H       1  ZINC001289410668    0.0500
     30 H30       -11.7673    4.5032   66.5897 H       1  ZINC001289410668    0.0500
     31 H31       -10.1709    5.1919   66.9707 H       1  ZINC001289410668    0.0500
     32 H32       -10.8061    3.3746   64.6019 H       1  ZINC001289410668    0.0600
     33 H33        -9.2096    4.0633   64.9831 H       1  ZINC001289410668    0.0600
     34 H34        -9.2247    2.8884   67.1671 H       1  ZINC001289410668    0.0600
     35 H35       -10.8205    2.1988   66.7847 H       1  ZINC001289410668    0.0600
     36 H36        -8.3154    1.7862   65.0936 H       1  ZINC001289410668    0.0600
     37 H37        -8.9151    0.6250   66.3019 H       1  ZINC001289410668    0.0600
     38 H38       -11.0950    0.5276   65.0683 H       1  ZINC001289410668    0.0700
     39 H39       -10.4076    1.6009   63.8259 H       1  ZINC001289410668    0.0700
     40 H40        -8.5314   -0.1113   63.5531 H       1  ZINC001289410668    0.1000
     41 H41        -9.4917   -1.2047   64.5781 H       1  ZINC001289410668    0.1000
     42 H42        -8.8410   -1.5807   61.6539 H       1  ZINC001289410668    0.4000
     43 H43        -8.9947   -3.1371   59.9123 H       1  ZINC001289410668    0.0800
     44 H44       -10.5289   -3.9459   60.3564 H       1  ZINC001289410668    0.0800
     45 H45       -11.0257   -2.8562   55.9391 H       1  ZINC001289410668    0.1200
     46 H46       -10.5680   -4.5336   55.5578 H       1  ZINC001289410668    0.1200
     47 H47       -13.0140   -5.2043   58.0268 H       1  ZINC001289410668    0.1700
     48 H48       -15.4229   -5.4726   57.0185 H       1  ZINC001289410668    0.1700
     49 H49       -12.3841   -2.4625   53.9768 H       1  ZINC001289410668    0.0700
     50 H50       -12.6473   -5.2260   52.7076 H       1  ZINC001289410668    0.0700
     51 H51       -11.7753   -3.8411   52.0077 H       1  ZINC001289410668    0.0600
     52 H52       -11.1947   -4.5886   53.5150 H       1  ZINC001289410668    0.0500
     53 H53       -14.7617   -3.8951   52.7071 H       1  ZINC001289410668    0.0700
     54 H54       -14.8155   -2.3094   53.5141 H       1  ZINC001289410668    0.0600
     55 H55       -13.8899   -2.5101   52.0071 H       1  ZINC001289410668    0.0600
     56 H56       -10.0221   -1.3715   57.2526 H       1  ZINC001289410668    0.0800
     57 H57       -11.7357   -1.4664   57.7458 H       1  ZINC001289410668    0.0800
     58 H58       -12.3937    0.0197   59.4659 H       1  ZINC001289410668    0.0600
     59 H59       -11.1540    0.9794   60.3087 H       1  ZINC001289410668    0.0600
     60 H60       -11.2722    1.0403   58.5336 H       1  ZINC001289410668    0.0700
@<TRIPOS>BOND
     1     1     2    1
     2     1    29    1
     3     1    30    1
     4     1    31    1
     5     2     3    1
     6     2    32    1
     7     2    33    1
     8     3     4    1
     9     3    34    1
    10     3    35    1
    11     4     5    1
    12     4    36    1
    13     4    37    1
    14     5     6    1
    15     5    38    1
    16     5    39    1
    17     6     7    1
    18     6    40    1
    19     6    41    1
    20     7     8    2
    21     7     9   am
    22     9    10    1
    23     9    42    1
    24    10    11    1
    25    10    26    1
    26    10    12    1
    27    12    13    1
    28    12    43    1
    29    12    44    1
    30    13    14   am
    31    13    25    1
    32    14    15    2
    33    14    16    1
    34    16    17    1
    35    16    45    1
    36    16    46    1
    37    17    21    1
    38    17    18    1
    39    18    19    2
    40    18    47    1
    41    19    20    1
    42    19    48    1
    43    20    21    2
    44    21    22    1
    45    22    23    1
    46    22    24    1
    47    22    49    1
    48    23    50    1
    49    23    51    1
    50    23    52    1
    51    24    53    1
    52    24    54    1
    53    24    55    1
    54    25    26    1
    55    25    56    1
    56    25    57    1
    57    26    27    1
    58    26    28    1
    59    28    58    1
    60    28    59    1
    61    28    60    1
@<TRIPOS>SUBSTRUCTURE
     1 ZINC001289410668        1 TEMP              0 ****  ****    0 ROOT


##########                                Name:    ZINC000509132103
##########                DOCK_Rotatable_Bonds:                   7
##########                         Heavy_Atoms:                  29
##########                    Molecular_Weight:              405.52
##########                DOCK_Rotatable_Bonds:                   7
##########                       Formal_Charge:          -0.0499998
##########                     HBond_Acceptors:                   6
##########                        HBond_Donors:                   0
##########                         Heavy_Atoms:                  29
##########                          Grid_Score:          -38.317272
##########                     Grid_vdw_energy:          -38.017502
##########                      Grid_es_energy:           -0.299770
##########           Internal_energy_repulsive:           14.890875

@<TRIPOS>MOLECULE
ZINC000509132103
 52 55 1 0 0
SMALL
USER_CHARGES


@<TRIPOS>ATOM
      1 C1        -16.3541   -1.1436   46.7371 C.3     1  ZINC000509132103    0.0300
      2 O2        -15.4628   -0.2214   47.3675 O.3     1  ZINC000509132103   -0.3000
      3 C3        -14.9207   -0.6007   48.5522 C.ar    1  ZINC000509132103    0.2700
      4 C4        -14.0489    0.2502   49.2263 C.ar    1  ZINC000509132103   -0.1300
      5 C5        -13.5216   -0.1836   50.4333 C.ar    1  ZINC000509132103   -0.0700
      6 C6        -13.8947   -1.4376   50.8944 C.ar    1  ZINC000509132103    0.0500
      7 C7        -13.3490   -1.9534   52.2010 C.3     1  ZINC000509132103   -0.0500
      8 S8        -11.8252   -2.8880   51.8931 S.3     1  ZINC000509132103   -0.1500
      9 C9        -11.3063   -3.3831   53.5592 C.3     1  ZINC000509132103   -0.1300
     10 C10       -12.3760   -4.2410   54.1843 C.2     1  ZINC000509132103    0.5400
     11 O11       -13.2296   -4.7491   53.4885 O.2     1  ZINC000509132103   -0.5100
     12 N12       -12.3842   -4.4436   55.5168 N.am    1  ZINC000509132103   -0.6100
     13 C13       -13.4115   -5.2732   56.1558 C.3     1  ZINC000509132103    0.1500
     14 C14       -13.9158   -4.5875   57.4008 C.ar    1  ZINC000509132103   -0.1000
     15 C15       -15.0556   -5.0990   58.0052 C.ar    1  ZINC000509132103   -0.1100
     16 C16       -15.5594   -4.5211   59.1527 C.ar    1  ZINC000509132103   -0.1200
     17 C17       -14.9227   -3.4253   59.7044 C.ar    1  ZINC000509132103   -0.1200
     18 C18       -13.7920   -2.9136   59.1023 C.ar    1  ZINC000509132103   -0.1100
     19 C19       -13.2860   -3.4896   57.9437 C.ar    1  ZINC000509132103   -0.0600
     20 C20       -12.0643   -2.8607   57.3273 C.3     1  ZINC000509132103   -0.0200
     21 H21       -12.3619   -1.9763   56.7641 H       1  ZINC000509132103    0.1000
     22 C22       -11.1107   -2.4541   58.4211 C.ar    1  ZINC000509132103   -0.0800
     23 C23       -10.5100   -3.4187   59.2081 C.ar    1  ZINC000509132103   -0.1100
     24 C24        -9.6352   -3.0457   60.2115 C.ar    1  ZINC000509132103   -0.1200
     25 C25        -9.3610   -1.7082   60.4275 C.ar    1  ZINC000509132103   -0.1200
     26 C26        -9.9612   -0.7437   59.6398 C.ar    1  ZINC000509132103   -0.1200
     27 C27       -10.8325   -1.1168   58.6337 C.ar    1  ZINC000509132103   -0.1100
     28 C28       -11.3589   -3.8464   56.3883 C.3     1  ZINC000509132103    0.1200
     29 N29       -14.7274   -2.1777   50.1894 N.ar    1  ZINC000509132103   -0.1900
     30 N30       -15.2226   -1.7788   49.0745 N.ar    1  ZINC000509132103   -0.3000
     31 H31       -17.1995   -1.3402   47.3965 H       1  ZINC000509132103    0.0600
     32 H32       -16.7149   -0.7178   45.8008 H       1  ZINC000509132103    0.1000
     33 H33       -15.8278   -2.0761   46.5333 H       1  ZINC000509132103    0.0600
     34 H34       -13.7911    1.2178   48.8216 H       1  ZINC000509132103    0.1600
     35 H35       -12.8404    0.4362   50.9974 H       1  ZINC000509132103    0.1600
     36 H36       -13.1329   -1.1135   52.8614 H       1  ZINC000509132103    0.1100
     37 H37       -14.0860   -2.6047   52.6708 H       1  ZINC000509132103    0.1000
     38 H38       -10.3768   -3.9490   53.4971 H       1  ZINC000509132103    0.1100
     39 H39       -11.1502   -2.4941   54.1704 H       1  ZINC000509132103    0.1100
     40 H40       -14.2398   -5.4224   55.4631 H       1  ZINC000509132103    0.1000
     41 H41       -12.9835   -6.2396   56.4219 H       1  ZINC000509132103    0.0900
     42 H42       -15.5522   -5.9557   57.5741 H       1  ZINC000509132103    0.1200
     43 H43       -16.4472   -4.9235   59.6177 H       1  ZINC000509132103    0.1300
     44 H44       -15.3098   -2.9707   60.6044 H       1  ZINC000509132103    0.1200
     45 H45       -13.2959   -2.0575   59.5351 H       1  ZINC000509132103    0.1200
     46 H46       -10.7242   -4.4638   59.0394 H       1  ZINC000509132103    0.1200
     47 H47        -9.1664   -3.7993   60.8269 H       1  ZINC000509132103    0.1200
     48 H48        -8.6782   -1.4167   61.2119 H       1  ZINC000509132103    0.1200
     49 H49        -9.7472    0.3014   59.8088 H       1  ZINC000509132103    0.1200
     50 H50       -11.3014   -0.3633   58.0183 H       1  ZINC000509132103    0.1200
     51 H51       -10.8658   -4.6235   56.9724 H       1  ZINC000509132103    0.0800
     52 H52       -10.6235   -3.3168   55.7827 H       1  ZINC000509132103    0.1000
@<TRIPOS>BOND
     1     1     2    1
     2     1    31    1
     3     1    32    1
     4     1    33    1
     5     2     3    1
     6     3    30   ar
     7     3     4   ar
     8     4     5   ar
     9     4    34    1
    10     5     6   ar
    11     5    35    1
    12     6     7    1
    13     6    29   ar
    14     7     8    1
    15     7    36    1
    16     7    37    1
    17     8     9    1
    18     9    10    1
    19     9    38    1
    20     9    39    1
    21    10    11    2
    22    10    12   am
    23    12    28    1
    24    12    13    1
    25    13    14    1
    26    13    40    1
    27    13    41    1
    28    14    19   ar
    29    14    15   ar
    30    15    16   ar
    31    15    42    1
    32    16    17   ar
    33    16    43    1
    34    17    18   ar
    35    17    44    1
    36    18    19   ar
    37    18    45    1
    38    19    20    1
    39    20    21    1
    40    20    22    1
    41    20    28    1
    42    22    27   ar
    43    22    23   ar
    44    23    24   ar
    45    23    46    1
    46    24    25   ar
    47    24    47    1
    48    25    26   ar
    49    25    48    1
    50    26    27   ar
    51    26    49    1
    52    27    50    1
    53    28    51    1
    54    28    52    1
    55    29    30   ar
@<TRIPOS>SUBSTRUCTURE
     1 ZINC000509132103        1 TEMP              0 ****  ****    0 ROOT


##########                                Name:    ZINC000062291520
##########                DOCK_Rotatable_Bonds:                  10
##########                         Heavy_Atoms:                  29
##########                    Molecular_Weight:             398.502
##########                DOCK_Rotatable_Bonds:                  10
##########                       Formal_Charge:          -0.0100006
##########                     HBond_Acceptors:                   6
##########                        HBond_Donors:                   1
##########                         Heavy_Atoms:                  29
##########                          Grid_Score:          -38.286922
##########                     Grid_vdw_energy:          -39.241478
##########                      Grid_es_energy:            0.954554
##########           Internal_energy_repulsive:           18.374952

@<TRIPOS>MOLECULE
ZINC000062291520
 59 61 1 0 0
SMALL
USER_CHARGES


@<TRIPOS>ATOM
      1 C1         -6.0765    2.3297   51.7130 C.3     1  ZINC000062291520    0.0300
      2 O2         -7.1914    1.4654   51.9416 O.3     1  ZINC000062291520   -0.3100
      3 C3         -8.0976    1.8605   52.8753 C.ar    1  ZINC000062291520    0.1000
      4 C4         -7.9508    3.0820   53.5119 C.ar    1  ZINC000062291520   -0.1700
      5 C5         -8.8702    3.4797   54.4653 C.ar    1  ZINC000062291520   -0.1200
      6 C6         -9.9399    2.6634   54.7812 C.ar    1  ZINC000062291520   -0.1200
      7 C7        -10.0957    1.4456   54.1448 C.ar    1  ZINC000062291520   -0.1700
      8 C8         -9.1784    1.0412   53.1889 C.ar    1  ZINC000062291520    0.1000
      9 O9         -9.3303   -0.1561   52.5621 O.3     1  ZINC000062291520   -0.3100
     10 C10       -10.5372   -0.8758   52.8217 C.3     1  ZINC000062291520    0.0700
     11 C11       -10.5195   -2.1967   52.0499 C.3     1  ZINC000062291520   -0.1400
     12 C12       -11.8214   -2.9237   52.2683 C.2     1  ZINC000062291520    0.5200
     13 O13       -12.7481   -2.7503   51.5053 O.2     1  ZINC000062291520   -0.5400
     14 N14       -11.9559   -3.7662   53.3115 N.am    1  ZINC000062291520   -0.7200
     15 C15       -13.2209   -4.4743   53.5228 C.3     1  ZINC000062291520    0.1600
     16 C16       -13.5160   -4.5461   54.9989 C.ar    1  ZINC000062291520   -0.1100
     17 C17       -14.2411   -5.6069   55.5080 C.ar    1  ZINC000062291520   -0.1000
     18 C18       -14.5113   -5.6729   56.8623 C.ar    1  ZINC000062291520   -0.1200
     19 C19       -14.0565   -4.6780   57.7071 C.ar    1  ZINC000062291520   -0.0900
     20 C20       -13.3316   -3.6166   57.1978 C.ar    1  ZINC000062291520   -0.0800
     21 C21       -12.8359   -2.5317   58.1188 C.3     1  ZINC000062291520    0.0900
     22 N22       -11.7798   -3.0702   58.9862 N.3     1  ZINC000062291520   -0.5300
     23 C23       -10.7171   -3.7031   58.1914 C.3     1  ZINC000062291520    0.0100
     24 C24        -9.6699   -4.3017   59.1343 C.3     1  ZINC000062291520    0.0600
     25 O25        -9.1656   -3.2745   59.9921 O.3     1  ZINC000062291520   -0.3800
     26 C26       -10.1737   -2.6371   60.7813 C.3     1  ZINC000062291520    0.0900
     27 H27       -10.6461   -3.3731   61.4318 H       1  ZINC000062291520    0.0700
     28 C28        -9.5364   -1.5372   61.6327 C.3     1  ZINC000062291520   -0.1500
     29 C29       -11.2261   -2.0217   59.8552 C.3     1  ZINC000062291520    0.0200
     30 C30       -13.0564   -3.5536   55.8447 C.ar    1  ZINC000062291520   -0.0900
     31 H31        -6.4345    3.3039   51.3799 H       1  ZINC000062291520    0.0500
     32 H32        -5.5119    2.4468   52.6380 H       1  ZINC000062291520    0.0600
     33 H33        -5.4329    1.8977   50.9467 H       1  ZINC000062291520    0.1000
     34 H34        -7.1159    3.7217   53.2671 H       1  ZINC000062291520    0.1400
     35 H35        -8.7523    4.4304   54.9640 H       1  ZINC000062291520    0.1300
     36 H36       -10.6558    2.9775   55.5262 H       1  ZINC000062291520    0.1300
     37 H37       -10.9329    0.8099   54.3929 H       1  ZINC000062291520    0.1400
     38 H38       -11.3917   -0.2795   52.5018 H       1  ZINC000062291520    0.0700
     39 H39       -10.6160   -1.0800   53.8896 H       1  ZINC000062291520    0.0700
     40 H40        -9.6945   -2.8141   52.4053 H       1  ZINC000062291520    0.1100
     41 H41       -10.3902   -1.9945   50.9866 H       1  ZINC000062291520    0.1100
     42 H42       -11.2151   -3.9040   53.9224 H       1  ZINC000062291520    0.4000
     43 H43       -14.0252   -3.9400   53.0171 H       1  ZINC000062291520    0.0800
     44 H44       -13.1445   -5.4835   53.1181 H       1  ZINC000062291520    0.0800
     45 H45       -14.5961   -6.3844   54.8479 H       1  ZINC000062291520    0.1200
     46 H46       -15.0776   -6.5020   57.2601 H       1  ZINC000062291520    0.1300
     47 H47       -14.2676   -4.7297   58.7650 H       1  ZINC000062291520    0.1200
     48 H48       -12.4358   -1.7080   57.5276 H       1  ZINC000062291520    0.0500
     49 H49       -13.6614   -2.1710   58.7325 H       1  ZINC000062291520    0.0900
     50 H50       -11.1455   -4.4932   57.5746 H       1  ZINC000062291520    0.0900
     51 H51       -10.2472   -2.9563   57.5516 H       1  ZINC000062291520    0.0400
     52 H52       -10.1283   -5.0863   59.7363 H       1  ZINC000062291520    0.0600
     53 H53        -8.8516   -4.7219   58.5496 H       1  ZINC000062291520    0.1000
     54 H54        -9.0655   -0.8007   60.9817 H       1  ZINC000062291520    0.0600
     55 H55       -10.3052   -1.0518   62.2340 H       1  ZINC000062291520    0.0700
     56 H56        -8.7846   -1.9754   62.2892 H       1  ZINC000062291520    0.0700
     57 H57       -10.7637   -1.2477   59.2425 H       1  ZINC000062291520    0.0400
     58 H58       -12.0258   -1.5844   60.4528 H       1  ZINC000062291520    0.0900
     59 H59       -12.4861   -2.7270   55.4476 H       1  ZINC000062291520    0.1200
@<TRIPOS>BOND
     1     1     2    1
     2     1    31    1
     3     1    32    1
     4     1    33    1
     5     2     3    1
     6     3     8   ar
     7     3     4   ar
     8     4     5   ar
     9     4    34    1
    10     5     6   ar
    11     5    35    1
    12     6     7   ar
    13     6    36    1
    14     7     8   ar
    15     7    37    1
    16     8     9    1
    17     9    10    1
    18    10    11    1
    19    10    38    1
    20    10    39    1
    21    11    12    1
    22    11    40    1
    23    11    41    1
    24    12    13    2
    25    12    14   am
    26    14    15    1
    27    14    42    1
    28    15    16    1
    29    15    43    1
    30    15    44    1
    31    16    30   ar
    32    16    17   ar
    33    17    18   ar
    34    17    45    1
    35    18    19   ar
    36    18    46    1
    37    19    20   ar
    38    19    47    1
    39    20    21    1
    40    20    30   ar
    41    21    22    1
    42    21    48    1
    43    21    49    1
    44    22    29    1
    45    22    23    1
    46    23    24    1
    47    23    50    1
    48    23    51    1
    49    24    25    1
    50    24    52    1
    51    24    53    1
    52    25    26    1
    53    26    27    1
    54    26    28    1
    55    26    29    1
    56    28    54    1
    57    28    55    1
    58    28    56    1
    59    29    57    1
    60    29    58    1
    61    30    59    1
@<TRIPOS>SUBSTRUCTURE
     1 ZINC000062291520        1 TEMP              0 ****  ****    0 ROOT


##########                                Name:    ZINC000193795672
##########                DOCK_Rotatable_Bonds:                  10
##########                         Heavy_Atoms:                  23
##########                    Molecular_Weight:              332.47
##########                DOCK_Rotatable_Bonds:                  10
##########                       Formal_Charge:        -2.98023e-07
##########                     HBond_Acceptors:                   6
##########                        HBond_Donors:                   3
##########                         Heavy_Atoms:                  23
##########                          Grid_Score:          -38.255150
##########                     Grid_vdw_energy:          -36.841831
##########                      Grid_es_energy:           -1.413320
##########           Internal_energy_repulsive:           10.724413

@<TRIPOS>MOLECULE
ZINC000193795672
 47 48 1 0 0
SMALL
USER_CHARGES


@<TRIPOS>ATOM
      1 C1        -12.6544    1.9537   64.9479 C.3     1  <0>        -0.1000
      2 C2        -11.8191    1.0596   64.0680 C.ar    1  <0>        -0.2000
      3 C3        -10.5053    0.7687   64.4099 C.ar    1  <0>        -0.0300
      4 C4         -9.7732   -0.0565   63.5752 C.ar    1  <0>        -0.2400
      5 C5        -10.3746   -0.5639   62.4283 C.ar    1  <0>         0.4000
      6 N6         -9.6506   -1.3944   61.5807 N.pl3   1  <0>        -0.7300
      7 C7        -10.3392   -2.1501   60.5314 C.3     1  <0>         0.1300
      8 C8         -9.9008   -3.6149   60.5866 C.3     1  <0>        -0.1400
      9 C9         -9.9421   -4.2130   59.1790 C.3     1  <0>         0.1400
     10 N10       -11.1056   -3.6886   58.4596 N.am    1  <0>        -0.7500
     11 C11       -11.7570   -4.4672   57.5732 C.2     1  <0>         0.7100
     12 O12       -11.3799   -5.6055   57.3717 O.2     1  <0>        -0.5900
     13 N13       -12.8264   -3.9843   56.9102 N.am    1  <0>        -0.7400
     14 C14       -13.5333   -4.8301   55.9453 C.3     1  <0>         0.1700
     15 H15       -12.8230   -5.4992   55.4596 H       1  <0>         0.0900
     16 C16       -14.5959   -5.6559   56.6733 C.3     1  <0>        -0.1700
     17 C17       -14.2063   -3.9486   54.8912 C.3     1  <0>        -0.0600
     18 C18       -13.1909   -3.5409   53.8548 C.2     1  <0>        -0.1700
     19 C19       -13.4772   -3.1174   52.6229 C.2     1  <0>        -0.1400
     20 C20       -12.3772   -2.7973   51.8458 C.2     1  <0>        -0.1300
     21 C21       -11.1977   -2.9608   52.4469 C.2     1  <0>        -0.2100
     22 S22       -11.4476   -3.5435   54.0875 S.3     1  <0>         0.0900
     23 N23       -11.6309   -0.2633   62.1368 N.ar    1  <0>        -0.5400
     24 C24       -12.3544    0.5171   62.9169 C.ar    1  <0>         0.1500
     25 H25       -13.1716    1.3495   65.6932 H       1  <0>         0.0700
     26 H26       -12.0095    2.6754   65.4492 H       1  <0>         0.0600
     27 H27       -13.3864    2.4828   64.3376 H       1  <0>         0.0700
     28 H28       -10.0647    1.1778   65.3071 H       1  <0>         0.1300
     29 H29        -8.7484   -0.3032   63.8108 H       1  <0>         0.1300
     30 H30        -8.6892   -1.4734   61.6839 H       1  <0>         0.4000
     31 H31       -11.4163   -2.0872   60.6858 H       1  <0>         0.0700
     32 H32       -10.0866   -1.7318   59.5571 H       1  <0>         0.0700
     33 H33        -8.8851   -3.6757   60.9775 H       1  <0>         0.0800
     34 H34       -10.5747   -4.1715   61.2379 H       1  <0>         0.0800
     35 H35        -9.0320   -3.9439   58.6430 H       1  <0>         0.0700
     36 H36       -10.0161   -5.2983   59.2473 H       1  <0>         0.0700
     37 H37       -11.4072   -2.7809   58.6212 H       1  <0>         0.4000
     38 H38       -13.1279   -3.0766   57.0717 H       1  <0>         0.3900
     39 H39       -15.3063   -4.9868   57.1590 H       1  <0>         0.0600
     40 H40       -15.1220   -6.2852   55.9554 H       1  <0>         0.0700
     41 H41       -14.1166   -6.2839   57.4242 H       1  <0>         0.0700
     42 H42       -15.0112   -4.5057   54.4118 H       1  <0>         0.1000
     43 H43       -14.6150   -3.0585   55.3692 H       1  <0>         0.0800
     44 H44       -14.4904   -3.0310   52.2590 H       1  <0>         0.1400
     45 H45       -12.4672   -2.4422   50.8298 H       1  <0>         0.1400
     46 H46       -10.2365   -2.7623   51.9963 H       1  <0>         0.1600
     47 H47       -13.3760    0.7406   62.6472 H       1  <0>         0.1500
@<TRIPOS>BOND
     1     1     2    1
     2     1    25    1
     3     1    26    1
     4     1    27    1
     5     2    24   ar
     6     2     3   ar
     7     3     4   ar
     8     3    28    1
     9     4     5   ar
    10     4    29    1
    11     5     6    1
    12     5    23   ar
    13     6     7    1
    14     6    30    1
    15     7     8    1
    16     7    31    1
    17     7    32    1
    18     8     9    1
    19     8    33    1
    20     8    34    1
    21     9    10    1
    22     9    35    1
    23     9    36    1
    24    10    11   am
    25    10    37    1
    26    11    12    2
    27    11    13   am
    28    13    14    1
    29    13    38    1
    30    14    15    1
    31    14    16    1
    32    14    17    1
    33    16    39    1
    34    16    40    1
    35    16    41    1
    36    17    18    1
    37    17    42    1
    38    17    43    1
    39    18    22    1
    40    18    19    2
    41    19    20    1
    42    19    44    1
    43    20    21    2
    44    20    45    1
    45    21    22    1
    46    21    46    1
    47    23    24   ar
    48    24    47    1
@<TRIPOS>SUBSTRUCTURE
     1 <0>         1 TEMP              0 ****  ****    0 ROOT


##########                                Name:    ZINC000046390957
##########                DOCK_Rotatable_Bonds:                   9
##########                         Heavy_Atoms:                  29
##########                    Molecular_Weight:             408.521
##########                DOCK_Rotatable_Bonds:                   9
##########                       Formal_Charge:           0.0100005
##########                     HBond_Acceptors:                   6
##########                        HBond_Donors:                   1
##########                         Heavy_Atoms:                  29
##########                          Grid_Score:          -38.252136
##########                     Grid_vdw_energy:          -38.366886
##########                      Grid_es_energy:            0.114750
##########           Internal_energy_repulsive:           15.441594

@<TRIPOS>MOLECULE
ZINC000046390957
 53 55 1 0 0
SMALL
USER_CHARGES


@<TRIPOS>ATOM
      1 C1        -11.3471    0.3602   58.1727 C.3     1  ZINC000046390957   -0.1100
      2 C2        -10.7422   -0.4950   59.2561 C.ar    1  ZINC000046390957   -0.0600
      3 C3        -10.5894    0.0113   60.5320 C.ar    1  ZINC000046390957   -0.1200
      4 C4        -10.0340   -0.7725   61.5265 C.ar    1  ZINC000046390957   -0.1100
      5 C5         -9.6303   -2.0653   61.2476 C.ar    1  ZINC000046390957   -0.1200
      6 C6         -9.7807   -2.5777   59.9739 C.ar    1  ZINC000046390957   -0.0800
      7 C7         -9.3409   -3.9869   59.6709 C.3     1  ZINC000046390957   -0.1100
      8 C8        -10.3430   -1.7948   58.9741 C.ar    1  ZINC000046390957    0.1300
      9 N9        -10.4973   -2.3111   57.6827 N.am    1  ZINC000046390957   -0.6800
     10 C10       -11.5779   -3.0574   57.3800 C.2     1  ZINC000046390957    0.5200
     11 O11       -12.4167   -3.2816   58.2270 O.2     1  ZINC000046390957   -0.4900
     12 C12       -11.7442   -3.6134   55.9893 C.3     1  ZINC000046390957    0.0700
     13 H13       -11.0711   -4.4600   55.8536 H       1  ZINC000046390957    0.1100
     14 C14       -13.1898   -4.0748   55.7939 C.3     1  ZINC000046390957   -0.1700
     15 O15       -11.4290   -2.5837   55.0153 O.3     1  ZINC000046390957   -0.3300
     16 C16       -11.1263   -2.9920   53.7731 C.2     1  ZINC000046390957    0.4700
     17 O17       -10.6606   -4.0927   53.5955 O.2     1  ZINC000046390957   -0.4800
     18 C18       -11.3675   -2.0776   52.5996 C.3     1  ZINC000046390957   -0.0300
     19 C19       -10.2329   -1.0919   52.4894 C.2     1  ZINC000046390957    0.0800
     20 C20        -9.0613   -1.3985   51.9244 C.2     1  ZINC000046390957   -0.2500
     21 S21        -8.0305    0.0282   52.0051 S.3     1  ZINC000046390957    0.1300
     22 C22        -9.2775    0.8951   52.7905 C.2     1  ZINC000046390957    0.0600
     23 C23        -9.1793    2.3300   53.2404 C.3     1  ZINC000046390957    0.0000
     24 C24        -8.5520    2.3852   54.6096 C.ar    1  ZINC000046390957   -0.0900
     25 C25        -7.8375    3.5031   54.9980 C.ar    1  ZINC000046390957   -0.0900
     26 C26        -7.2620    3.5537   56.2538 C.ar    1  ZINC000046390957   -0.1200
     27 C27        -7.4014    2.4866   57.1214 C.ar    1  ZINC000046390957   -0.1200
     28 C28        -8.1167    1.3691   56.7335 C.ar    1  ZINC000046390957   -0.1200
     29 C29        -8.6958    1.3203   55.4792 C.ar    1  ZINC000046390957   -0.1100
     30 N30       -10.3168    0.1446   52.9370 N.2     1  ZINC000046390957   -0.4500
     31 H31       -12.4342    0.3113   58.2356 H       1  ZINC000046390957    0.0800
     32 H32       -11.0218    1.3927   58.3006 H       1  ZINC000046390957    0.0700
     33 H33       -11.0228   -0.0048   57.1981 H       1  ZINC000046390957    0.0600
     34 H34       -10.9038    1.0207   60.7530 H       1  ZINC000046390957    0.1300
     35 H35        -9.9149   -0.3741   62.5232 H       1  ZINC000046390957    0.1300
     36 H36        -9.1965   -2.6749   62.0264 H       1  ZINC000046390957    0.1300
     37 H37       -10.1700   -4.6721   59.8472 H       1  ZINC000046390957    0.0700
     38 H38        -9.0295   -4.0541   58.6284 H       1  ZINC000046390957    0.0600
     39 H39        -8.5051   -4.2537   60.3176 H       1  ZINC000046390957    0.0700
     40 H40        -9.8266   -2.1318   57.0054 H       1  ZINC000046390957    0.4100
     41 H41       -13.4264   -4.8479   56.5251 H       1  ZINC000046390957    0.0800
     42 H42       -13.8629   -3.2282   55.9295 H       1  ZINC000046390957    0.0800
     43 H43       -13.3101   -4.4771   54.7880 H       1  ZINC000046390957    0.0800
     44 H44       -11.4263   -2.6679   51.6851 H       1  ZINC000046390957    0.1200
     45 H45       -12.3039   -1.5391   52.7452 H       1  ZINC000046390957    0.1300
     46 H46        -8.7935   -2.3524   51.4944 H       1  ZINC000046390957    0.1800
     47 H47        -8.5644    2.8904   52.5362 H       1  ZINC000046390957    0.1000
     48 H48       -10.1768    2.7676   53.2799 H       1  ZINC000046390957    0.1000
     49 H49        -7.7286    4.3367   54.3200 H       1  ZINC000046390957    0.1200
     50 H50        -6.7032    4.4267   56.5569 H       1  ZINC000046390957    0.1200
     51 H51        -6.9512    2.5259   58.1024 H       1  ZINC000046390957    0.1200
     52 H52        -8.2253    0.5354   57.4112 H       1  ZINC000046390957    0.1200
     53 H53        -9.2546    0.4472   55.1761 H       1  ZINC000046390957    0.1200
@<TRIPOS>BOND
     1     1     2    1
     2     1    31    1
     3     1    32    1
     4     1    33    1
     5     2     8   ar
     6     2     3   ar
     7     3     4   ar
     8     3    34    1
     9     4     5   ar
    10     4    35    1
    11     5     6   ar
    12     5    36    1
    13     6     7    1
    14     6     8   ar
    15     7    37    1
    16     7    38    1
    17     7    39    1
    18     8     9    1
    19     9    10   am
    20     9    40    1
    21    10    11    2
    22    10    12    1
    23    12    13    1
    24    12    14    1
    25    12    15    1
    26    14    41    1
    27    14    42    1
    28    14    43    1
    29    15    16    1
    30    16    17    2
    31    16    18    1
    32    18    19    1
    33    18    44    1
    34    18    45    1
    35    19    30    1
    36    19    20    2
    37    20    21    1
    38    20    46    1
    39    21    22    1
    40    22    23    1
    41    22    30    2
    42    23    24    1
    43    23    47    1
    44    23    48    1
    45    24    29   ar
    46    24    25   ar
    47    25    26   ar
    48    25    49    1
    49    26    27   ar
    50    26    50    1
    51    27    28   ar
    52    27    51    1
    53    28    29   ar
    54    28    52    1
    55    29    53    1
@<TRIPOS>SUBSTRUCTURE
     1 ZINC000046390957        1 TEMP              0 ****  ****    0 ROOT


##########                                Name:    ZINC000007167963
##########                DOCK_Rotatable_Bonds:                   8
##########                         Heavy_Atoms:                  25
##########                    Molecular_Weight:             378.433
##########                DOCK_Rotatable_Bonds:                   8
##########                       Formal_Charge:        -1.01328e-06
##########                     HBond_Acceptors:                  10
##########                        HBond_Donors:                   3
##########                         Heavy_Atoms:                  25
##########                          Grid_Score:          -38.232067
##########                     Grid_vdw_energy:          -36.827869
##########                      Grid_es_energy:           -1.404198
##########           Internal_energy_repulsive:            7.722311

@<TRIPOS>MOLECULE
ZINC000007167963
 39 41 1 0 0
SMALL
USER_CHARGES


@<TRIPOS>ATOM
      1 C1         -7.5143    2.7016   53.1369 C.3     1  ZINC000007167963   -0.0800
      2 C2         -6.9933    1.8095   52.0397 C.2     1  ZINC000007167963    0.0900
      3 C3         -7.5108    0.6027   51.6819 C.2     1  ZINC000007167963   -0.1500
      4 C4         -8.6754   -0.0821   52.2811 C.2     1  ZINC000007167963    0.2600
      5 N5         -9.3798    0.3362   53.3044 N.2     1  ZINC000007167963   -0.2700
      6 N6        -10.3175   -0.5090   53.5524 N.2     1  ZINC000007167963   -0.2800
      7 C7        -10.2493   -1.5009   52.6971 C.2     1  ZINC000007167963    0.1200
      8 S8        -11.3197   -2.8991   52.6343 S.3     1  ZINC000007167963    0.1500
      9 C9        -12.3137   -2.6007   54.1174 C.3     1  ZINC000007167963   -0.1200
     10 H10       -12.5618   -1.5412   54.1814 H       1  ZINC000007167963    0.1400
     11 C11       -13.6020   -3.4225   54.0416 C.3     1  ZINC000007167963   -0.1500
     12 C12       -11.5294   -3.0076   55.3381 C.2     1  ZINC000007167963    0.5300
     13 O13       -10.7762   -3.9568   55.2862 O.2     1  ZINC000007167963   -0.4900
     14 N14       -11.6650   -2.3168   56.4874 N.am    1  ZINC000007167963   -0.6100
     15 C15       -10.9420   -2.6902   57.6101 C.2     1  ZINC000007167963    0.0800
     16 C16       -10.0858   -1.8675   58.2950 C.2     1  ZINC000007167963   -0.2400
     17 C17        -9.8261   -0.4740   57.9202 C.2     1  ZINC000007167963    0.5900
     18 N18       -10.4609    0.5263   58.5627 N.am    1  ZINC000007167963   -0.8400
     19 O19        -9.0372   -0.2205   57.0287 O.2     1  ZINC000007167963   -0.5600
     20 C20        -9.4668   -2.5202   59.4276 C.2     1  ZINC000007167963   -0.0900
     21 C21        -9.8498   -3.7804   59.5764 C.2     1  ZINC000007167963   -0.2800
     22 S22       -11.0012   -4.2330   58.3321 S.3     1  ZINC000007167963    0.3000
     23 O23        -9.2139   -1.2517   51.8715 O.3     1  ZINC000007167963   -0.2000
     24 C24        -6.6720    0.1226   50.5759 C.2     1  ZINC000007167963   -0.1800
     25 C25        -5.7432    1.0718   50.3760 C.2     1  ZINC000007167963   -0.0300
     26 O26        -5.9449    2.0726   51.2465 O.3     1  ZINC000007167963   -0.1700
     27 H27        -6.9051    3.6038   53.1917 H       1  ZINC000007167963    0.0800
     28 H28        -8.5481    2.9738   52.9239 H       1  ZINC000007167963    0.1000
     29 H29        -7.4666    2.1726   54.0887 H       1  ZINC000007167963    0.1000
     30 H30       -14.1694   -3.1282   53.1586 H       1  ZINC000007167963    0.0900
     31 H31       -13.3540   -4.4819   53.9776 H       1  ZINC000007167963    0.0800
     32 H32       -14.2006   -3.2428   54.9345 H       1  ZINC000007167963    0.0800
     33 H33       -12.2683   -1.5584   56.5290 H       1  ZINC000007167963    0.4400
     34 H34       -10.2899    1.4482   58.3139 H       1  ZINC000007167963    0.4000
     35 H35       -11.0888    0.3246   59.2740 H       1  ZINC000007167963    0.4100
     36 H36        -8.7633   -2.0309   60.0848 H       1  ZINC000007167963    0.1500
     37 H37        -9.5032   -4.4382   60.3598 H       1  ZINC000007167963    0.1700
     38 H38        -6.7799   -0.8055   50.0341 H       1  ZINC000007167963    0.1600
     39 H39        -4.9619    1.0369   49.6312 H       1  ZINC000007167963    0.2200
@<TRIPOS>BOND
     1     1     2    1
     2     1    27    1
     3     1    28    1
     4     1    29    1
     5     2    26    1
     6     2     3    2
     7     3     4    1
     8     3    24    1
     9     4    23    1
    10     4     5    2
    11     5     6    1
    12     6     7    2
    13     7     8    1
    14     7    23    1
    15     8     9    1
    16     9    10    1
    17     9    11    1
    18     9    12    1
    19    11    30    1
    20    11    31    1
    21    11    32    1
    22    12    13    2
    23    12    14   am
    24    14    15    1
    25    14    33    1
    26    15    22    1
    27    15    16    2
    28    16    17    1
    29    16    20    1
    30    17    18   am
    31    17    19    2
    32    18    34    1
    33    18    35    1
    34    20    21    2
    35    20    36    1
    36    21    22    1
    37    21    37    1
    38    24    25    2
    39    24    38    1
    40    25    26    1
    41    25    39    1
@<TRIPOS>SUBSTRUCTURE
     1 ZINC000007167963        1 TEMP              0 ****  ****    0 ROOT


##########                                Name:    ZINC000265724350
##########                DOCK_Rotatable_Bonds:                   8
##########                         Heavy_Atoms:                  23
##########                    Molecular_Weight:              345.42
##########                DOCK_Rotatable_Bonds:                   8
##########                       Formal_Charge:          -0.0300002
##########                     HBond_Acceptors:                   9
##########                        HBond_Donors:                   2
##########                         Heavy_Atoms:                  23
##########                          Grid_Score:          -38.163689
##########                     Grid_vdw_energy:          -37.300007
##########                      Grid_es_energy:           -0.863681
##########           Internal_energy_repulsive:            6.000639

@<TRIPOS>MOLECULE
ZINC000265724350
 46 47 1 0 0
SMALL
USER_CHARGES


@<TRIPOS>ATOM
      1 C1         -4.8081    1.7907   50.9940 C.3     1  ZINC000265724350    0.0800
      2 N2         -5.9695    1.2439   51.7002 N.am    1  ZINC000265724350   -1.1100
      3 S3         -7.1447    0.4355   50.8590 S.o2    1  ZINC000265724350    2.7200
      4 O4         -7.7673    1.3955   50.0164 O.2     1  ZINC000265724350   -0.9300
      5 O5         -6.5412   -0.7539   50.3689 O.2     1  ZINC000265724350   -0.9300
      6 C6         -8.3659   -0.0701   52.0244 C.2     1  ZINC000265724350   -0.5600
      7 C7         -8.7273    0.6141   53.1323 C.2     1  ZINC000265724350   -0.0900
      8 C8         -9.7248   -0.1364   53.7742 C.2     1  ZINC000265724350   -0.1400
      9 C9         -9.9238   -1.2545   53.0159 C.2     1  ZINC000265724350   -0.0200
     10 C10       -10.8780   -2.3309   53.3018 C.2     1  ZINC000265724350    0.6000
     11 O11       -11.0974   -3.1876   52.4656 O.2     1  ZINC000265724350   -0.5000
     12 N12       -11.5119   -2.3716   54.4905 N.am    1  ZINC000265724350   -0.7100
     13 C13       -12.4637   -3.4479   54.7766 C.3     1  ZINC000265724350    0.1200
     14 C14       -12.5834   -3.6336   56.2906 C.3     1  ZINC000265724350   -0.1100
     15 H15       -12.9342   -2.7065   56.7438 H       1  ZINC000265724350    0.0800
     16 C16       -13.5792   -4.7561   56.5894 C.3     1  ZINC000265724350   -0.1400
     17 C17       -11.2149   -3.9984   56.8694 C.3     1  ZINC000265724350    0.0600
     18 N18       -11.0241   -3.3041   58.1498 N.3     1  ZINC000265724350   -0.5300
     19 C19       -10.4556   -1.9643   57.9432 C.3     1  ZINC000265724350    0.0100
     20 C20       -10.3293   -1.2553   59.2942 C.3     1  ZINC000265724350    0.0600
     21 O21        -9.5307   -2.0526   60.1725 O.3     1  ZINC000265724350   -0.3900
     22 C22       -10.0554   -3.3640   60.3967 C.3     1  ZINC000265724350    0.0600
     23 C23       -10.1788   -4.0944   59.0568 C.3     1  ZINC000265724350    0.0200
     24 O24        -9.0928   -1.1927   51.9549 O.3     1  ZINC000265724350   -0.1100
     25 H25        -4.1482    2.2841   51.7076 H       1  ZINC000265724350    0.0900
     26 H26        -4.2693    0.9820   50.5001 H       1  ZINC000265724350    0.0600
     27 H27        -5.1426    2.5126   50.2490 H       1  ZINC000265724350    0.0700
     28 H28        -6.0500    1.3555   52.6604 H       1  ZINC000265724350    0.4200
     29 H29        -8.3245    1.5604   53.4619 H       1  ZINC000265724350    0.1800
     30 H30       -10.2357    0.1205   54.6903 H       1  ZINC000265724350    0.1700
     31 H31       -11.3379   -1.6882   55.1564 H       1  ZINC000265724350    0.4100
     32 H32       -13.4389   -3.1898   54.3639 H       1  ZINC000265724350    0.0800
     33 H33       -12.1112   -4.3745   54.3236 H       1  ZINC000265724350    0.0700
     34 H34       -14.5542   -4.4963   56.1771 H       1  ZINC000265724350    0.0500
     35 H35       -13.2284   -5.6833   56.1363 H       1  ZINC000265724350    0.0600
     36 H36       -13.6645   -4.8885   57.6680 H       1  ZINC000265724350    0.0700
     37 H37       -11.1632   -5.0754   57.0289 H       1  ZINC000265724350    0.0800
     38 H38       -10.4333   -3.6963   56.1723 H       1  ZINC000265724350    0.0400
     39 H39        -9.4704   -2.0535   57.4855 H       1  ZINC000265724350    0.0400
     40 H40       -11.1103   -1.3879   57.2895 H       1  ZINC000265724350    0.0900
     41 H41        -9.8556   -0.2838   59.1525 H       1  ZINC000265724350    0.1000
     42 H42       -11.3203   -1.1180   59.7271 H       1  ZINC000265724350    0.0600
     43 H43        -9.3835   -3.9177   61.0524 H       1  ZINC000265724350    0.1000
     44 H44       -11.0383   -3.2881   60.8618 H       1  ZINC000265724350    0.0600
     45 H45       -10.6315   -5.0730   59.2160 H       1  ZINC000265724350    0.0900
     46 H46        -9.1891   -4.2177   58.6169 H       1  ZINC000265724350    0.0400
@<TRIPOS>BOND
     1     1     2    1
     2     1    25    1
     3     1    26    1
     4     1    27    1
     5     2     3   am
     6     2    28    1
     7     3     4    2
     8     3     5    2
     9     3     6    1
    10     6    24    1
    11     6     7    2
    12     7     8    1
    13     7    29    1
    14     8     9    2
    15     8    30    1
    16     9    10    1
    17     9    24    1
    18    10    11    2
    19    10    12   am
    20    12    13    1
    21    12    31    1
    22    13    14    1
    23    13    32    1
    24    13    33    1
    25    14    15    1
    26    14    16    1
    27    14    17    1
    28    16    34    1
    29    16    35    1
    30    16    36    1
    31    17    18    1
    32    17    37    1
    33    17    38    1
    34    18    23    1
    35    18    19    1
    36    19    20    1
    37    19    39    1
    38    19    40    1
    39    20    21    1
    40    20    41    1
    41    20    42    1
    42    21    22    1
    43    22    23    1
    44    22    43    1
    45    22    44    1
    46    23    45    1
    47    23    46    1
@<TRIPOS>SUBSTRUCTURE
     1 ZINC000265724350        1 TEMP              0 ****  ****    0 ROOT


##########                                Name:    ZINC000671418508
##########                DOCK_Rotatable_Bonds:                   9
##########                         Heavy_Atoms:                  28
##########                    Molecular_Weight:             405.884
##########                DOCK_Rotatable_Bonds:                   9
##########                       Formal_Charge:         -1.3411e-07
##########                     HBond_Acceptors:                   9
##########                        HBond_Donors:                   2
##########                         Heavy_Atoms:                  28
##########                          Grid_Score:          -38.161633
##########                     Grid_vdw_energy:          -37.679699
##########                      Grid_es_energy:           -0.481935
##########           Internal_energy_repulsive:           22.279781

@<TRIPOS>MOLECULE
ZINC000671418508
 52 54 1 0 0
SMALL
USER_CHARGES


@<TRIPOS>ATOM
      1 C1        -10.9173    4.5502   50.3387 C.3     1  ZINC000671418508    0.1000
      2 N2         -9.9543    3.5317   50.7648 N.pl3   1  ZINC000671418508   -0.3700
      3 C3        -10.1936    2.5267   51.6331 C.2     1  ZINC000671418508    0.0800
      4 C4         -9.0528    1.8098   51.7587 C.2     1  ZINC000671418508   -0.2700
      5 C5         -8.8613    0.5934   52.6275 C.3     1  ZINC000671418508    0.2000
      6 N6        -10.1337   -0.1214   52.7542 N.am    1  ZINC000671418508   -0.6900
      7 C7        -10.2676   -1.3566   52.2317 C.2     1  ZINC000671418508    0.5100
      8 O8         -9.3346   -1.8760   51.6553 O.2     1  ZINC000671418508   -0.5100
      9 C9        -11.5651   -2.0866   52.3625 C.2     1  ZINC000671418508    0.5100
     10 O10       -12.1332   -2.4966   51.3717 O.2     1  ZINC000671418508   -0.5200
     11 N11       -12.1043   -2.2896   53.5810 N.am    1  ZINC000671418508   -0.5800
     12 C12       -13.3771   -3.0108   53.7326 C.3     1  ZINC000671418508    0.0800
     13 C13       -13.1873   -4.1198   54.7729 C.3     1  ZINC000671418508    0.0400
     14 N14       -12.6513   -3.5388   56.0111 N.3     1  ZINC000671418508   -0.5200
     15 C15       -12.6160   -4.5366   57.0885 C.3     1  ZINC000671418508    0.1300
     16 H16       -12.1523   -5.4520   56.7210 H       1  ZINC000671418508    0.0600
     17 C17       -14.0429   -4.8381   57.5514 C.3     1  ZINC000671418508    0.0900
     18 O18       -14.4364   -6.1261   57.0739 O.3     1  ZINC000671418508   -0.5500
     19 C19       -11.8157   -3.9978   58.2462 C.ar    1  ZINC000671418508   -0.0800
     20 C20       -12.1924   -2.8155   58.8557 C.ar    1  ZINC000671418508   -0.0600
     21 C21       -11.4587   -2.3208   59.9175 C.ar    1  ZINC000671418508   -0.1200
     22 C22       -10.3472   -3.0090   60.3703 C.ar    1  ZINC000671418508   -0.0300
     23 Cl23       -9.4256   -2.3885   61.7042 Cl      1  ZINC000671418508   -0.0700
     24 C24        -9.9707   -4.1921   59.7599 C.ar    1  ZINC000671418508   -0.1200
     25 C25       -10.7084   -4.6888   58.7019 C.ar    1  ZINC000671418508   -0.1100
     26 C26       -11.3221   -2.9525   55.7927 C.3     1  ZINC000671418508    0.0400
     27 C27       -11.4325   -1.8011   54.7947 C.3     1  ZINC000671418508    0.1100
     28 C28        -8.0833    2.3967   50.9392 C.2     1  ZINC000671418508    0.0700
     29 N29        -8.6243    3.4254   50.3382 N.2     1  ZINC000671418508   -0.2900
     30 H30       -11.4529    4.1977   49.4573 H       1  ZINC000671418508    0.0800
     31 H31       -11.6272    4.7385   51.1442 H       1  ZINC000671418508    0.0900
     32 H32       -10.3882    5.4722   50.0978 H       1  ZINC000671418508    0.0900
     33 H33       -11.1281    2.3302   52.1377 H       1  ZINC000671418508    0.1800
     34 H34        -8.1189   -0.0635   52.1742 H       1  ZINC000671418508    0.0800
     35 H35        -8.5183    0.9025   53.6149 H       1  ZINC000671418508    0.0800
     36 H36       -10.8799    0.2941   53.2139 H       1  ZINC000671418508    0.4100
     37 H37       -14.1509   -2.3210   54.0697 H       1  ZINC000671418508    0.0800
     38 H38       -13.6651   -3.4500   52.7775 H       1  ZINC000671418508    0.1400
     39 H39       -14.1472   -4.5932   54.9790 H       1  ZINC000671418508    0.0900
     40 H40       -12.4895   -4.8637   54.3883 H       1  ZINC000671418508    0.0400
     41 H41       -14.0814   -4.8270   58.6407 H       1  ZINC000671418508    0.0500
     42 H42       -14.7206   -4.0814   57.1561 H       1  ZINC000671418508    0.0500
     43 H43       -14.0845   -6.3461   56.2004 H       1  ZINC000671418508    0.3800
     44 H44       -13.0598   -2.2782   58.5020 H       1  ZINC000671418508    0.1400
     45 H45       -11.7529   -1.3970   60.3934 H       1  ZINC000671418508    0.1300
     46 H46        -9.1029   -4.7296   60.1127 H       1  ZINC000671418508    0.1300
     47 H47       -10.4149   -5.6125   58.2255 H       1  ZINC000671418508    0.1300
     48 H48       -10.9293   -2.5795   56.7386 H       1  ZINC000671418508    0.0900
     49 H49       -10.6504   -3.7127   55.3940 H       1  ZINC000671418508    0.0400
     50 H50       -10.4360   -1.4381   54.5427 H       1  ZINC000671418508    0.1000
     51 H51       -12.0198   -0.9932   55.2312 H       1  ZINC000671418508    0.0800
     52 H52        -7.0653    2.0566   50.8192 H       1  ZINC000671418508    0.1900
@<TRIPOS>BOND
     1     1     2    1
     2     1    30    1
     3     1    31    1
     4     1    32    1
     5     2    29    1
     6     2     3    1
     7     3     4    2
     8     3    33    1
     9     4     5    1
    10     4    28    1
    11     5     6    1
    12     5    34    1
    13     5    35    1
    14     6     7   am
    15     6    36    1
    16     7     8    2
    17     7     9    1
    18     9    10    2
    19     9    11   am
    20    11    27    1
    21    11    12    1
    22    12    13    1
    23    12    37    1
    24    12    38    1
    25    13    14    1
    26    13    39    1
    27    13    40    1
    28    14    15    1
    29    14    26    1
    30    15    16    1
    31    15    17    1
    32    15    19    1
    33    17    18    1
    34    17    41    1
    35    17    42    1
    36    18    43    1
    37    19    25   ar
    38    19    20   ar
    39    20    21   ar
    40    20    44    1
    41    21    22   ar
    42    21    45    1
    43    22    23    1
    44    22    24   ar
    45    24    25   ar
    46    24    46    1
    47    25    47    1
    48    26    27    1
    49    26    48    1
    50    26    49    1
    51    27    50    1
    52    27    51    1
    53    28    29    2
    54    28    52    1
@<TRIPOS>SUBSTRUCTURE
     1 ZINC000671418508        1 TEMP              0 ****  ****    0 ROOT


##########                                Name:    ZINC001083519372
##########                DOCK_Rotatable_Bonds:                   7
##########                         Heavy_Atoms:                  27
##########                    Molecular_Weight:             370.411
##########                DOCK_Rotatable_Bonds:                   7
##########                       Formal_Charge:           0.0399996
##########                     HBond_Acceptors:                   9
##########                        HBond_Donors:                   2
##########                         Heavy_Atoms:                  27
##########                          Grid_Score:          -38.087421
##########                     Grid_vdw_energy:          -36.922764
##########                      Grid_es_energy:           -1.164657
##########           Internal_energy_repulsive:           11.842625

@<TRIPOS>MOLECULE
ZINC001083519372
 49 52 1 0 0
SMALL
USER_CHARGES


@<TRIPOS>ATOM
      1 C1        -12.8852    0.4741   52.2746 C.3     1  ZINC001083519372   -0.1500
      2 C2        -13.3612   -0.9789   52.2190 C.3     1  ZINC001083519372   -0.0100
      3 C3        -14.0641   -1.2345   50.8843 C.3     1  ZINC001083519372   -0.1500
      4 C4        -12.1762   -1.9010   52.3474 C.2     1  ZINC001083519372   -0.0100
      5 C5        -12.1781   -3.1330   52.8829 C.2     1  ZINC001083519372   -0.0100
      6 C6        -13.3699   -3.8470   53.4667 C.3     1  ZINC001083519372    0.1300
      7 N7        -12.9505   -4.6168   54.6454 N.3     1  ZINC001083519372   -0.5000
      8 C8        -12.2657   -3.7454   55.6342 C.3     1  ZINC001083519372    0.0300
      9 C9        -12.3788   -4.5494   56.9537 C.3     1  ZINC001083519372    0.1500
     10 H10       -11.6116   -5.3224   57.0015 H       1  ZINC001083519372    0.1200
     11 N11       -12.2873   -3.6586   58.1131 N.am    1  ZINC001083519372   -0.6900
     12 C12       -11.1485   -3.6025   58.8317 C.2     1  ZINC001083519372    0.5600
     13 O13       -10.1964   -4.2902   58.5169 O.2     1  ZINC001083519372   -0.5100
     14 C14       -11.0569   -2.7068   60.0001 C.2     1  ZINC001083519372    0.1400
     15 C15        -9.8381   -2.3457   60.5077 C.2     1  ZINC001083519372   -0.1500
     16 C16        -9.7842   -1.4933   61.6187 C.2     1  ZINC001083519372    0.1800
     17 N17       -10.8879   -1.0456   62.1675 N.2     1  ZINC001083519372   -0.4400
     18 C18       -12.0879   -1.3868   61.6865 C.2     1  ZINC001083519372    0.2500
     19 C19       -13.3834   -1.0603   62.0728 C.2     1  ZINC001083519372   -0.2500
     20 C20       -14.2542   -1.7038   61.2092 C.2     1  ZINC001083519372    0.1000
     21 N21       -13.5574   -2.3934   60.3323 N.2     1  ZINC001083519372   -0.3100
     22 N22       -12.1953   -2.2145   60.5966 N.pl3   1  ZINC001083519372   -0.3100
     23 C23       -13.7863   -5.1811   56.8540 C.3     1  ZINC001083519372    0.0900
     24 H24       -13.7720   -6.1999   57.2414 H       1  ZINC001083519372    0.0800
     25 O25       -14.7363   -4.3915   57.5724 O.3     1  ZINC001083519372   -0.5600
     26 C26       -14.1196   -5.1855   55.3507 C.3     1  ZINC001083519372    0.0100
     27 N27       -10.9249   -3.6142   52.8041 N.2     1  ZINC001083519372   -0.4800
     28 C28       -10.1676   -2.7168   52.2404 C.2     1  ZINC001083519372    0.1700
     29 O29       -10.9167   -1.6471   51.9413 O.3     1  ZINC001083519372   -0.2000
     30 H30       -12.3843    0.6562   53.2254 H       1  ZINC001083519372    0.0600
     31 H31       -12.1896    0.6601   51.4562 H       1  ZINC001083519372    0.0600
     32 H32       -13.7422    1.1411   52.1818 H       1  ZINC001083519372    0.0700
     33 H33       -14.0566   -1.1649   53.0374 H       1  ZINC001083519372    0.1000
     34 H34       -13.3687   -1.0485   50.0659 H       1  ZINC001083519372    0.0600
     35 H35       -14.4033   -2.2697   50.8447 H       1  ZINC001083519372    0.0600
     36 H36       -14.9212   -0.5675   50.7914 H       1  ZINC001083519372    0.0700
     37 H37       -14.1239   -3.1163   53.7594 H       1  ZINC001083519372    0.0900
     38 H38       -13.7892   -4.5231   52.7215 H       1  ZINC001083519372    0.0600
     39 H39       -11.2206   -3.6004   55.3604 H       1  ZINC001083519372    0.1000
     40 H40       -12.7778   -2.7873   55.7224 H       1  ZINC001083519372    0.0600
     41 H41       -13.0464   -3.1090   58.3636 H       1  ZINC001083519372    0.4300
     42 H42        -8.9282   -2.7137   60.0572 H       1  ZINC001083519372    0.1800
     43 H43        -8.8268   -1.2034   62.0262 H       1  ZINC001083519372    0.1900
     44 H44       -13.6604   -0.4206   62.8977 H       1  ZINC001083519372    0.1700
     45 H45       -15.3320   -1.6483   61.2494 H       1  ZINC001083519372    0.2000
     46 H46       -14.8732   -3.5084   57.2030 H       1  ZINC001083519372    0.3900
     47 H47       -15.0007   -4.5715   55.1638 H       1  ZINC001083519372    0.0700
     48 H48       -14.2967   -6.2065   55.0125 H       1  ZINC001083519372    0.0900
     49 H49        -9.1108   -2.8198   52.0429 H       1  ZINC001083519372    0.2500
@<TRIPOS>BOND
     1     1     2    1
     2     1    30    1
     3     1    31    1
     4     1    32    1
     5     2     3    1
     6     2     4    1
     7     2    33    1
     8     3    34    1
     9     3    35    1
    10     3    36    1
    11     4    29    1
    12     4     5    2
    13     5     6    1
    14     5    27    1
    15     6     7    1
    16     6    37    1
    17     6    38    1
    18     7    26    1
    19     7     8    1
    20     8     9    1
    21     8    39    1
    22     8    40    1
    23     9    10    1
    24     9    11    1
    25     9    23    1
    26    11    12   am
    27    11    41    1
    28    12    13    2
    29    12    14    1
    30    14    22    1
    31    14    15    2
    32    15    16    1
    33    15    42    1
    34    16    17    2
    35    16    43    1
    36    17    18    1
    37    18    22    1
    38    18    19    2
    39    19    20    1
    40    19    44    1
    41    20    21    2
    42    20    45    1
    43    21    22    1
    44    23    24    1
    45    23    25    1
    46    23    26    1
    47    25    46    1
    48    26    47    1
    49    26    48    1
    50    27    28    2
    51    28    29    1
    52    28    49    1
@<TRIPOS>SUBSTRUCTURE
     1 ZINC001083519372        1 TEMP              0 ****  ****    0 ROOT


##########                                Name:    ZINC001573443776
##########                DOCK_Rotatable_Bonds:                   8
##########                         Heavy_Atoms:                  28
##########                    Molecular_Weight:             386.457
##########                DOCK_Rotatable_Bonds:                   8
##########                       Formal_Charge:          0.00999954
##########                     HBond_Acceptors:                  10
##########                        HBond_Donors:                   3
##########                         Heavy_Atoms:                  28
##########                          Grid_Score:          -38.071167
##########                     Grid_vdw_energy:          -36.577370
##########                      Grid_es_energy:           -1.493799
##########           Internal_energy_repulsive:           28.675377

@<TRIPOS>MOLECULE
ZINC001573443776
 54 56 1 0 0
SMALL
USER_CHARGES


@<TRIPOS>ATOM
      1 C1        -14.6249   -2.0980   61.9673 C.3     1  ZINC001573443776   -0.1800
      2 C2        -13.4648   -1.1534   62.1487 C.2     1  ZINC001573443776    0.5100
      3 O3        -13.5634   -0.2101   62.9047 O.2     1  ZINC001573443776   -0.5400
      4 N4        -12.3179   -1.3567   61.4708 N.am    1  ZINC001573443776   -0.6100
      5 C5        -11.1782   -0.4444   61.6371 C.3     1  ZINC001573443776    0.1100
      6 C6        -10.7401    0.0541   60.2564 C.3     1  ZINC001573443776   -0.1300
      7 C7        -10.4570   -1.1468   59.3510 C.3     1  ZINC001573443776   -0.1000
      8 C8        -11.7339   -1.9735   59.1832 C.3     1  ZINC001573443776   -0.1200
      9 H9        -12.5185   -1.3486   58.7565 H       1  ZINC001573443776    0.1000
     10 C10       -11.4626   -3.1373   58.2649 C.2     1  ZINC001573443776    0.5200
     11 O11       -10.3258   -3.3911   57.9273 O.2     1  ZINC001573443776   -0.5300
     12 N12       -12.4834   -3.8959   57.8189 N.am    1  ZINC001573443776   -0.7300
     13 C13       -12.2195   -5.0282   56.9277 C.3     1  ZINC001573443776    0.1100
     14 C14       -13.3683   -5.1681   55.9269 C.3     1  ZINC001573443776    0.1400
     15 H15       -12.9793   -5.5309   54.9756 H       1  ZINC001573443776    0.0900
     16 C16       -14.3986   -6.1612   56.4686 C.3     1  ZINC001573443776   -0.1700
     17 N17       -14.0048   -3.8636   55.7286 N.pl3   1  ZINC001573443776   -0.7200
     18 C18       -14.0331   -3.2896   54.4638 C.ar    1  ZINC001573443776    0.4300
     19 C19       -15.2481   -2.8797   53.9223 C.ar    1  ZINC001573443776   -0.2500
     20 C20       -15.2675   -2.3096   52.6645 C.ar    1  ZINC001573443776    0.0100
     21 C21       -14.0559   -2.1660   51.9802 C.ar    1  ZINC001573443776   -0.1400
     22 C22       -14.0241   -1.5589   50.6262 C.2     1  ZINC001573443776    0.2400
     23 N23       -13.8003   -0.2925   50.3361 N.2     1  ZINC001573443776   -0.3000
     24 N24       -13.8549   -0.1658   49.0549 N.pl3   1  ZINC001573443776   -0.2300
     25 N25       -14.1060   -1.3113   48.5239 N.2     1  ZINC001573443776   -0.0500
     26 N26       -14.2115   -2.1926   49.4598 N.2     1  ZINC001573443776   -0.2700
     27 C27       -12.8807   -2.5996   52.5865 C.ar    1  ZINC001573443776    0.2300
     28 C28       -11.5684   -2.4509   51.8606 C.3     1  ZINC001573443776   -0.1200
     29 N29       -12.9027   -3.1344   53.7908 N.ar    1  ZINC001573443776   -0.5400
     30 C30       -12.1813   -2.4983   60.5560 C.3     1  ZINC001573443776    0.1200
     31 H31       -15.3010   -1.7018   61.2096 H       1  ZINC001573443776    0.0900
     32 H32       -14.2539   -3.0723   61.6494 H       1  ZINC001573443776    0.0800
     33 H33       -15.1590   -2.2030   62.9116 H       1  ZINC001573443776    0.1000
     34 H34       -11.4758    0.4033   62.2542 H       1  ZINC001573443776    0.1000
     35 H35       -10.3529   -0.9738   62.1132 H       1  ZINC001573443776    0.0700
     36 H36       -11.5340    0.6600   59.8196 H       1  ZINC001573443776    0.0700
     37 H37        -9.8364    0.6553   60.3566 H       1  ZINC001573443776    0.0800
     38 H38       -10.1214   -0.7949   58.3754 H       1  ZINC001573443776    0.0800
     39 H39        -9.6803   -1.7654   59.8006 H       1  ZINC001573443776    0.0700
     40 H40       -13.3928   -3.6922   58.0879 H       1  ZINC001573443776    0.4000
     41 H41       -11.2873   -4.8573   56.3892 H       1  ZINC001573443776    0.0900
     42 H42       -12.1368   -5.9422   57.5160 H       1  ZINC001573443776    0.0800
     43 H43       -13.9250   -7.1317   56.6162 H       1  ZINC001573443776    0.0700
     44 H44       -14.7877   -5.7983   57.4200 H       1  ZINC001573443776    0.0700
     45 H45       -15.2170   -6.2609   55.7557 H       1  ZINC001573443776    0.0700
     46 H46       -14.4064   -3.4006   56.4804 H       1  ZINC001573443776    0.4100
     47 H47       -16.1648   -3.0064   54.4790 H       1  ZINC001573443776    0.1400
     48 H48       -16.1959   -1.9829   52.2199 H       1  ZINC001573443776    0.1400
     49 H49       -13.7270    0.6629   48.5670 H       1  ZINC001573443776    0.4800
     50 H50       -11.1253   -1.4855   52.1050 H       1  ZINC001573443776    0.0800
     51 H51       -10.8918   -3.2490   52.1661 H       1  ZINC001573443776    0.0800
     52 H52       -11.7389   -2.5107   50.7857 H       1  ZINC001573443776    0.1100
     53 H53       -11.4369   -3.1951   60.9412 H       1  ZINC001573443776    0.0800
     54 H54       -13.1421   -3.0038   60.4585 H       1  ZINC001573443776    0.0900
@<TRIPOS>BOND
     1     1     2    1
     2     1    31    1
     3     1    32    1
     4     1    33    1
     5     2     3    2
     6     2     4   am
     7     4    30    1
     8     4     5    1
     9     5     6    1
    10     5    34    1
    11     5    35    1
    12     6     7    1
    13     6    36    1
    14     6    37    1
    15     7     8    1
    16     7    38    1
    17     7    39    1
    18     8     9    1
    19     8    10    1
    20     8    30    1
    21    10    11    2
    22    10    12   am
    23    12    13    1
    24    12    40    1
    25    13    14    1
    26    13    41    1
    27    13    42    1
    28    14    15    1
    29    14    16    1
    30    14    17    1
    31    16    43    1
    32    16    44    1
    33    16    45    1
    34    17    18    1
    35    17    46    1
    36    18    29   ar
    37    18    19   ar
    38    19    20   ar
    39    19    47    1
    40    20    21   ar
    41    20    48    1
    42    21    22    1
    43    21    27   ar
    44    22    26    1
    45    22    23    2
    46    23    24    1
    47    24    25    1
    48    24    49    1
    49    25    26    2
    50    27    28    1
    51    27    29   ar
    52    28    50    1
    53    28    51    1
    54    28    52    1
    55    30    53    1
    56    30    54    1
@<TRIPOS>SUBSTRUCTURE
     1 ZINC001573443776        1 TEMP              0 ****  ****    0 ROOT


##########                                Name:    ZINC001039825450
##########                DOCK_Rotatable_Bonds:                   8
##########                         Heavy_Atoms:                  24
##########                    Molecular_Weight:             337.339
##########                DOCK_Rotatable_Bonds:                   8
##########                       Formal_Charge:           0.0100001
##########                     HBond_Acceptors:                  11
##########                        HBond_Donors:                   4
##########                         Heavy_Atoms:                  24
##########                          Grid_Score:          -38.032158
##########                     Grid_vdw_energy:          -37.209362
##########                      Grid_es_energy:           -0.822798
##########           Internal_energy_repulsive:           10.714275

@<TRIPOS>MOLECULE
ZINC001039825450
 43 45 1 0 0
SMALL
USER_CHARGES


@<TRIPOS>ATOM
      1 O1        -11.0093    0.8671   62.5113 O.2     1  ZINC001039825450   -0.5100
      2 C2        -10.1852    0.0342   62.8245 C.2     1  ZINC001039825450    0.5000
      3 C3         -9.2768    0.2787   64.0019 C.3     1  ZINC001039825450    0.1300
      4 N4         -9.9808    1.0838   65.0030 N.pl3   1  ZINC001039825450   -0.1500
      5 N5        -11.2518    1.0598   65.1977 N.2     1  ZINC001039825450   -0.2800
      6 C6        -11.5461    1.8990   66.1648 C.2     1  ZINC001039825450   -0.0200
      7 C7        -10.3321    2.4606   66.5667 C.2     1  ZINC001039825450   -0.0200
      8 N8         -9.4114    1.9069   65.8106 N.2     1  ZINC001039825450   -0.2800
      9 N9        -10.0856   -1.1124   62.1232 N.am    1  ZINC001039825450   -0.7300
     10 C10       -10.9686   -1.3500   60.9787 C.3     1  ZINC001039825450    0.1000
     11 C11       -10.2243   -2.1680   59.9215 C.3     1  ZINC001039825450    0.1100
     12 O12        -9.1446   -1.4128   59.3683 O.3     1  ZINC001039825450   -0.5400
     13 C13        -9.7137   -3.5049   60.5209 C.3     1  ZINC001039825450   -0.1600
     14 C14        -9.6455   -4.4044   59.2615 C.3     1  ZINC001039825450    0.1000
     15 N15       -10.8108   -4.0072   58.4504 N.am    1  ZINC001039825450   -0.6100
     16 C16       -11.4266   -4.7762   57.5309 C.2     1  ZINC001039825450    0.5200
     17 O17       -11.0270   -5.9008   57.3150 O.2     1  ZINC001039825450   -0.5100
     18 C18       -12.6117   -4.2388   56.7708 C.3     1  ZINC001039825450    0.1100
     19 H19       -13.1349   -3.4870   57.3615 H       1  ZINC001039825450    0.1200
     20 C20       -13.5683   -5.3825   56.3812 C.3     1  ZINC001039825450    0.1100
     21 N21       -13.5801   -5.3467   54.9111 N.am    1  ZINC001039825450   -0.7400
     22 C22       -12.7773   -4.3613   54.4885 C.2     1  ZINC001039825450    0.7100
     23 O23       -12.6012   -4.1080   53.3124 O.2     1  ZINC001039825450   -0.5800
     24 N24       -12.1857   -3.6767   55.4804 N.am    1  ZINC001039825450   -0.7200
     25 C25       -11.1901   -2.6334   58.8114 C.3     1  ZINC001039825450    0.1200
     26 H26        -8.9871   -0.6758   64.4416 H       1  ZINC001039825450    0.1400
     27 H27        -8.3857    0.8107   63.6690 H       1  ZINC001039825450    0.1400
     28 H28       -12.5259    2.1113   66.5663 H       1  ZINC001039825450    0.2000
     29 H29       -10.1807    3.1961   67.3430 H       1  ZINC001039825450    0.2000
     30 H30        -9.4291   -1.7802   62.3762 H       1  ZINC001039825450    0.4000
     31 H31       -11.8507   -1.8990   61.3082 H       1  ZINC001039825450    0.0900
     32 H32       -11.2738   -0.3951   60.5508 H       1  ZINC001039825450    0.0900
     33 H33        -8.4723   -1.1566   60.0144 H       1  ZINC001039825450    0.3800
     34 H34        -8.7268   -3.3815   60.9668 H       1  ZINC001039825450    0.0900
     35 H35       -10.4220   -3.9030   61.2474 H       1  ZINC001039825450    0.0900
     36 H36        -8.7214   -4.2204   58.7135 H       1  ZINC001039825450    0.0800
     37 H37        -9.7187   -5.4553   59.5415 H       1  ZINC001039825450    0.0800
     38 H38       -13.1861   -6.3391   56.7375 H       1  ZINC001039825450    0.0900
     39 H39       -14.5671   -5.1973   56.7765 H       1  ZINC001039825450    0.1000
     40 H40       -14.0885   -5.9420   54.3385 H       1  ZINC001039825450    0.4400
     41 H41       -11.5743   -2.9328   55.3631 H       1  ZINC001039825450    0.4400
     42 H42       -12.2153   -2.6170   59.1812 H       1  ZINC001039825450    0.0900
     43 H43       -11.0969   -1.9825   57.9421 H       1  ZINC001039825450    0.0900
@<TRIPOS>BOND
     1     1     2    2
     2     2     3    1
     3     2     9   am
     4     3     4    1
     5     3    26    1
     6     3    27    1
     7     4     8    1
     8     4     5    1
     9     5     6    2
    10     6     7    1
    11     6    28    1
    12     7     8    2
    13     7    29    1
    14     9    10    1
    15     9    30    1
    16    10    11    1
    17    10    31    1
    18    10    32    1
    19    11    25    1
    20    11    12    1
    21    11    13    1
    22    12    33    1
    23    13    14    1
    24    13    34    1
    25    13    35    1
    26    14    15    1
    27    14    36    1
    28    14    37    1
    29    15    16   am
    30    15    25    1
    31    16    17    2
    32    16    18    1
    33    18    19    1
    34    18    24    1
    35    18    20    1
    36    20    21    1
    37    20    38    1
    38    20    39    1
    39    21    22   am
    40    21    40    1
    41    22    23    2
    42    22    24   am
    43    24    41    1
    44    25    42    1
    45    25    43    1
@<TRIPOS>SUBSTRUCTURE
     1 ZINC001039825450        1 TEMP              0 ****  ****    0 ROOT


##########                                Name:    ZINC000008416770
##########                DOCK_Rotatable_Bonds:                  13
##########                         Heavy_Atoms:                  30
##########                    Molecular_Weight:             412.442
##########                DOCK_Rotatable_Bonds:                  13
##########                       Formal_Charge:          -0.0199998
##########                     HBond_Acceptors:                   8
##########                        HBond_Donors:                   2
##########                         Heavy_Atoms:                  30
##########                          Grid_Score:          -38.011017
##########                     Grid_vdw_energy:          -38.006004
##########                      Grid_es_energy:           -0.005014
##########           Internal_energy_repulsive:           10.634785

@<TRIPOS>MOLECULE
ZINC000008416770
 54 55 1 0 0
SMALL
USER_CHARGES


@<TRIPOS>ATOM
      1 C1         -3.8665    1.3768   49.0646 C.3     1  ZINC000008416770   -0.1500
      2 C2         -4.5716    1.9412   50.2996 C.3     1  ZINC000008416770    0.0600
      3 O3         -5.7042    1.0979   50.6379 O.3     1  ZINC000008416770   -0.3500
      4 C4         -6.4614    1.4815   51.6844 C.2     1  ZINC000008416770    0.5100
      5 O5         -6.2231    2.5269   52.2560 O.2     1  ZINC000008416770   -0.5100
      6 C6         -7.5794    0.6325   52.1361 C.ar    1  ZINC000008416770   -0.1500
      7 C7         -8.4686    1.1027   53.1070 C.ar    1  ZINC000008416770   -0.0400
      8 C8         -9.5113    0.3076   53.5258 C.ar    1  ZINC000008416770   -0.1400
      9 C9         -9.6808   -0.9627   52.9840 C.ar    1  ZINC000008416770    0.1800
     10 N10       -10.7379   -1.7652   53.4106 N.am    1  ZINC000008416770   -0.6700
     11 C11       -11.7330   -2.0786   52.5574 C.2     1  ZINC000008416770    0.5200
     12 O12       -11.7088   -1.6625   51.4185 O.2     1  ZINC000008416770   -0.5100
     13 C13       -12.8758   -2.9461   53.0186 C.3     1  ZINC000008416770   -0.1300
     14 C14       -13.3963   -2.4319   54.3624 C.3     1  ZINC000008416770   -0.1000
     15 C15       -12.7311   -3.1901   55.4821 C.2     1  ZINC000008416770    0.4700
     16 O16       -12.7212   -4.3983   55.4711 O.2     1  ZINC000008416770   -0.5100
     17 O17       -12.1499   -2.5233   56.4917 O.3     1  ZINC000008416770   -0.3300
     18 C18       -11.4262   -3.3122   57.4726 C.3     1  ZINC000008416770    0.0500
     19 C19       -11.3325   -2.5434   58.7654 C.2     1  ZINC000008416770    0.5100
     20 O20       -12.3338   -2.3216   59.4130 O.2     1  ZINC000008416770   -0.4900
     21 N21       -10.1362   -2.1024   59.2019 N.am    1  ZINC000008416770   -0.6700
     22 C22       -10.0492   -1.3886   60.4023 C.ar    1  ZINC000008416770    0.1400
     23 C23        -9.4331   -1.9594   61.5082 C.ar    1  ZINC000008416770   -0.1400
     24 C24        -9.3489   -1.2522   62.6916 C.ar    1  ZINC000008416770   -0.1000
     25 C25        -9.8775    0.0227   62.7759 C.ar    1  ZINC000008416770   -0.1000
     26 C26        -9.7842    0.7914   64.0689 C.3     1  ZINC000008416770   -0.1200
     27 C27       -10.4912    0.5941   61.6764 C.ar    1  ZINC000008416770   -0.1000
     28 C28       -10.5736   -0.1056   60.4885 C.ar    1  ZINC000008416770   -0.1200
     29 C29        -8.7979   -1.4339   52.0171 C.ar    1  ZINC000008416770   -0.1600
     30 C30        -7.7559   -0.6424   51.5900 C.ar    1  ZINC000008416770   -0.0300
     31 H31        -3.5167    0.3663   49.2759 H       1  ZINC000008416770    0.0700
     32 H32        -4.5641    1.3523   48.2274 H       1  ZINC000008416770    0.0700
     33 H33        -3.0163    2.0099   48.8106 H       1  ZINC000008416770    0.0800
     34 H34        -3.8741    1.9658   51.1367 H       1  ZINC000008416770    0.0700
     35 H35        -4.9213    2.9517   50.0883 H       1  ZINC000008416770    0.0700
     36 H36        -8.3373    2.0885   53.5282 H       1  ZINC000008416770    0.1400
     37 H37       -10.1983    0.6702   54.2760 H       1  ZINC000008416770    0.1400
     38 H38       -10.7573   -2.0980   54.3216 H       1  ZINC000008416770    0.4200
     39 H39       -13.6779   -2.9126   52.2814 H       1  ZINC000008416770    0.1100
     40 H40       -12.5292   -3.9733   53.1323 H       1  ZINC000008416770    0.1100
     41 H41       -13.1694   -1.3700   54.4577 H       1  ZINC000008416770    0.1200
     42 H42       -14.4750   -2.5790   54.4145 H       1  ZINC000008416770    0.1200
     43 H43       -11.9536   -4.2503   57.6450 H       1  ZINC000008416770    0.1100
     44 H44       -10.4231   -3.5223   57.1014 H       1  ZINC000008416770    0.1100
     45 H45        -9.3354   -2.2799   58.6841 H       1  ZINC000008416770    0.4100
     46 H46        -9.0207   -2.9554   61.4432 H       1  ZINC000008416770    0.1300
     47 H47        -8.8699   -1.6955   63.5521 H       1  ZINC000008416770    0.1300
     48 H48        -8.8606    1.3701   64.0817 H       1  ZINC000008416770    0.0700
     49 H49       -10.6367    1.4655   64.1531 H       1  ZINC000008416770    0.0700
     50 H50        -9.7880    0.0944   64.9070 H       1  ZINC000008416770    0.0700
     51 H51       -10.9032    1.5901   61.7455 H       1  ZINC000008416770    0.1300
     52 H52       -11.0531    0.3412   59.6300 H       1  ZINC000008416770    0.1300
     53 H53        -8.9327   -2.4203   51.5986 H       1  ZINC000008416770    0.1400
     54 H54        -7.0710   -1.0088   50.8396 H       1  ZINC000008416770    0.1400
@<TRIPOS>BOND
     1     1     2    1
     2     1    31    1
     3     1    32    1
     4     1    33    1
     5     2     3    1
     6     2    34    1
     7     2    35    1
     8     3     4    1
     9     4     5    2
    10     4     6    1
    11     6    30   ar
    12     6     7   ar
    13     7     8   ar
    14     7    36    1
    15     8     9   ar
    16     8    37    1
    17     9    10    1
    18     9    29   ar
    19    10    11   am
    20    10    38    1
    21    11    12    2
    22    11    13    1
    23    13    14    1
    24    13    39    1
    25    13    40    1
    26    14    15    1
    27    14    41    1
    28    14    42    1
    29    15    16    2
    30    15    17    1
    31    17    18    1
    32    18    19    1
    33    18    43    1
    34    18    44    1
    35    19    20    2
    36    19    21   am
    37    21    22    1
    38    21    45    1
    39    22    28   ar
    40    22    23   ar
    41    23    24   ar
    42    23    46    1
    43    24    25   ar
    44    24    47    1
    45    25    26    1
    46    25    27   ar
    47    26    48    1
    48    26    49    1
    49    26    50    1
    50    27    28   ar
    51    27    51    1
    52    28    52    1
    53    29    30   ar
    54    29    53    1
    55    30    54    1
@<TRIPOS>SUBSTRUCTURE
     1 ZINC000008416770        1 TEMP              0 ****  ****    0 ROOT


##########                                Name:    ZINC000375302598
##########                DOCK_Rotatable_Bonds:                   8
##########                         Heavy_Atoms:                  27
##########                    Molecular_Weight:             368.479
##########                DOCK_Rotatable_Bonds:                   8
##########                       Formal_Charge:               -0.02
##########                     HBond_Acceptors:                   6
##########                        HBond_Donors:                   1
##########                         Heavy_Atoms:                  27
##########                          Grid_Score:          -37.988152
##########                     Grid_vdw_energy:          -35.987968
##########                      Grid_es_energy:           -2.000185
##########           Internal_energy_repulsive:           10.426520

@<TRIPOS>MOLECULE
ZINC000375302598
 55 58 1 0 0
SMALL
USER_CHARGES


@<TRIPOS>ATOM
      1 C1        -11.0727    5.7605   50.4129 C.3     1  ZINC000375302598   -0.1500
      2 C2         -9.5606    5.8840   50.2150 C.3     1  ZINC000375302598   -0.0300
      3 C3         -8.9086    4.5517   50.4811 C.2     1  ZINC000375302598    0.1800
      4 N4         -7.8234    4.3402   51.1860 N.2     1  ZINC000375302598   -0.4700
      5 C5         -7.6210    3.0110   51.1492 C.2     1  ZINC000375302598    0.1800
      6 C6         -6.4942    2.2617   51.8124 C.3     1  ZINC000375302598    0.1500
      7 N7         -5.2160    2.6697   51.2143 N.3     1  ZINC000375302598   -0.5300
      8 C8         -4.2430    3.0362   52.2513 C.3     1  ZINC000375302598    0.0500
      9 C9         -2.9786    3.5922   51.5924 C.3     1  ZINC000375302598   -0.1100
     10 C10        -2.3851    2.5311   50.6616 C.3     1  ZINC000375302598   -0.1300
     11 C11        -3.4349    2.1317   49.6209 C.3     1  ZINC000375302598    0.1500
     12 H12        -3.6934    2.9990   49.0134 H       1  ZINC000375302598    0.1000
     13 N13        -2.8943    1.0760   48.7612 N.am    1  ZINC000375302598   -0.7300
     14 C14        -1.9331    1.3654   47.8618 C.2     1  ZINC000375302598    0.5200
     15 O15        -1.5169    2.5003   47.7632 O.2     1  ZINC000375302598   -0.5300
     16 C16        -1.3758    0.2791   46.9785 C.3     1  ZINC000375302598   -0.1100
     17 C17        -1.0140    0.8672   45.6132 C.3     1  ZINC000375302598   -0.1200
     18 H18         0.0139    1.2144   45.5084 H       1  ZINC000375302598    0.1200
     19 C19        -2.1015    1.6437   44.8680 C.3     1  ZINC000375302598   -0.1700
     20 C20        -1.6820    0.2546   44.3806 C.3     1  ZINC000375302598   -0.1100
     21 H21        -2.3795   -0.5673   44.5423 H       1  ZINC000375302598    0.1100
     22 C22        -0.8692    0.1776   43.1140 C.ar    1  ZINC000375302598   -0.0500
     23 C23         0.0892    1.1378   42.8483 C.ar    1  ZINC000375302598   -0.1200
     24 C24         0.8348    1.0671   41.6864 C.ar    1  ZINC000375302598   -0.1200
     25 C25         0.6223    0.0362   40.7904 C.ar    1  ZINC000375302598   -0.1300
     26 C26        -0.3354   -0.9244   41.0565 C.ar    1  ZINC000375302598   -0.1200
     27 C27        -1.0781   -0.8562   42.2205 C.ar    1  ZINC000375302598   -0.1100
     28 C28        -4.6861    1.6181   50.3369 C.3     1  ZINC000375302598    0.0500
     29 N29        -8.5758    2.4917   50.4369 N.2     1  ZINC000375302598   -0.3800
     30 O30        -9.3294    3.3592   50.0486 O.3     1  ZINC000375302598    0.0800
     31 H31       -11.2811    5.4523   51.4375 H       1  ZINC000375302598    0.0600
     32 H32       -11.5442    6.7242   50.2203 H       1  ZINC000375302598    0.0800
     33 H33       -11.4701    5.0171   49.7220 H       1  ZINC000375302598    0.0600
     34 H34        -9.3523    6.1921   49.1904 H       1  ZINC000375302598    0.1100
     35 H35        -9.1632    6.6275   50.9059 H       1  ZINC000375302598    0.1000
     36 H36        -6.4852    2.4881   52.8786 H       1  ZINC000375302598    0.0700
     37 H37        -6.6367    1.1905   51.6697 H       1  ZINC000375302598    0.1100
     38 H38        -4.6760    3.7945   52.9038 H       1  ZINC000375302598    0.0800
     39 H39        -3.9886    2.1541   52.8387 H       1  ZINC000375302598    0.0400
     40 H40        -3.2299    4.4825   51.0160 H       1  ZINC000375302598    0.0700
     41 H41        -2.2505    3.8497   52.3618 H       1  ZINC000375302598    0.0700
     42 H42        -1.5086    2.9381   50.1573 H       1  ZINC000375302598    0.0700
     43 H43        -2.0977    1.6556   51.2437 H       1  ZINC000375302598    0.0600
     44 H44        -3.2280    0.1685   48.8392 H       1  ZINC000375302598    0.4000
     45 H45        -0.4831   -0.1426   47.4406 H       1  ZINC000375302598    0.1000
     46 H46        -2.1229   -0.5041   46.8503 H       1  ZINC000375302598    0.1000
     47 H47        -3.0746    1.7356   45.3503 H       1  ZINC000375302598    0.1000
     48 H48        -1.7889    2.5015   44.2724 H       1  ZINC000375302598    0.1000
     49 H49         0.2552    1.9432   43.5484 H       1  ZINC000375302598    0.1200
     50 H50         1.5830    1.8176   41.4786 H       1  ZINC000375302598    0.1200
     51 H51         1.2044   -0.0186   39.8823 H       1  ZINC000375302598    0.1200
     52 H52        -0.5017   -1.7297   40.3564 H       1  ZINC000375302598    0.1200
     53 H53        -1.8264   -1.6067   42.4283 H       1  ZINC000375302598    0.1200
     54 H54        -4.4297    0.7425   50.9333 H       1  ZINC000375302598    0.0400
     55 H55        -5.4410    1.3463   49.5990 H       1  ZINC000375302598    0.0900
@<TRIPOS>BOND
     1     1     2    1
     2     1    31    1
     3     1    32    1
     4     1    33    1
     5     2     3    1
     6     2    34    1
     7     2    35    1
     8     3    30    1
     9     3     4    2
    10     4     5    1
    11     5     6    1
    12     5    29    2
    13     6     7    1
    14     6    36    1
    15     6    37    1
    16     7    28    1
    17     7     8    1
    18     8     9    1
    19     8    38    1
    20     8    39    1
    21     9    10    1
    22     9    40    1
    23     9    41    1
    24    10    11    1
    25    10    42    1
    26    10    43    1
    27    11    12    1
    28    11    13    1
    29    11    28    1
    30    13    14   am
    31    13    44    1
    32    14    15    2
    33    14    16    1
    34    16    17    1
    35    16    45    1
    36    16    46    1
    37    17    18    1
    38    17    20    1
    39    17    19    1
    40    19    20    1
    41    19    47    1
    42    19    48    1
    43    20    21    1
    44    20    22    1
    45    22    27   ar
    46    22    23   ar
    47    23    24   ar
    48    23    49    1
    49    24    25   ar
    50    24    50    1
    51    25    26   ar
    52    25    51    1
    53    26    27   ar
    54    26    52    1
    55    27    53    1
    56    28    54    1
    57    28    55    1
    58    29    30    1
@<TRIPOS>SUBSTRUCTURE
     1 ZINC000375302598        1 TEMP              0 ****  ****    0 ROOT


##########                                Name:    ZINC000809503567
##########                DOCK_Rotatable_Bonds:                   9
##########                         Heavy_Atoms:                  26
##########                    Molecular_Weight:             353.378
##########                DOCK_Rotatable_Bonds:                   9
##########                       Formal_Charge:          -0.0200002
##########                     HBond_Acceptors:                   7
##########                        HBond_Donors:                   1
##########                         Heavy_Atoms:                  26
##########                          Grid_Score:          -37.950859
##########                     Grid_vdw_energy:          -37.407806
##########                      Grid_es_energy:           -0.543054
##########           Internal_energy_repulsive:           16.659594

@<TRIPOS>MOLECULE
ZINC000809503567
 45 46 1 0 0
SMALL
USER_CHARGES


@<TRIPOS>ATOM
      1 C1        -12.0065    0.5873   54.6513 C.3     1  ZINC000809503567    0.0200
      2 O2        -11.4516   -0.5897   54.0606 O.3     1  ZINC000809503567   -0.3100
      3 C3        -10.3639   -0.4259   53.2658 C.ar    1  ZINC000809503567    0.1900
      4 C4         -9.7219    0.8011   53.2086 C.ar    1  ZINC000809503567   -0.2100
      5 C5         -8.6148    0.9666   52.3991 C.ar    1  ZINC000809503567   -0.0200
      6 C6         -8.1383   -0.0887   51.6396 C.ar    1  ZINC000809503567   -0.1500
      7 C7         -6.9299    0.1054   50.7603 C.3     1  ZINC000809503567    0.1700
      8 N8         -5.9562    0.9559   51.4493 N.am    1  ZINC000809503567   -0.7000
      9 C9         -5.0347    1.6368   50.7394 C.2     1  ZINC000809503567    0.5100
     10 O10        -5.0107    1.5442   49.5298 O.2     1  ZINC000809503567   -0.4900
     11 C11        -4.0426    2.5058   51.4422 C.2     1  ZINC000809503567    0.5100
     12 O12        -4.3323    3.0243   52.5004 O.2     1  ZINC000809503567   -0.5000
     13 N13        -2.8260    2.7137   50.9007 N.am    1  ZINC000809503567   -0.4600
     14 C14        -1.8541    3.5670   51.5886 C.3     1  ZINC000809503567    0.0800
     15 O15        -2.4874    2.1074   49.6666 O.3     1  ZINC000809503567   -0.1100
     16 C16        -2.1031    3.0346   48.6495 C.3     1  ZINC000809503567    0.0800
     17 C17        -2.1829    2.3640   47.3023 C.ar    1  ZINC000809503567   -0.0900
     18 C18        -2.0781    0.9889   47.2075 C.ar    1  ZINC000809503567   -0.1000
     19 C19        -2.1513    0.3737   45.9716 C.ar    1  ZINC000809503567   -0.1300
     20 C20        -2.3297    1.1336   44.8307 C.ar    1  ZINC000809503567   -0.1100
     21 C21        -2.4354    2.5087   44.9257 C.ar    1  ZINC000809503567   -0.1300
     22 C22        -2.3665    3.1235   46.1619 C.ar    1  ZINC000809503567   -0.0800
     23 C23        -8.7642   -1.3163   51.6846 C.ar    1  ZINC000809503567   -0.0100
     24 C24        -9.8811   -1.4988   52.5033 C.ar    1  ZINC000809503567   -0.0600
     25 C25       -10.5360   -2.7712   52.5548 C.1     1  ZINC000809503567    0.2600
     26 N26       -11.0556   -3.7806   52.5956 N.1     1  ZINC000809503567   -0.4100
     27 H27       -12.3188    1.2755   53.8659 H       1  ZINC000809503567    0.0600
     28 H28       -12.8687    0.3161   55.2606 H       1  ZINC000809503567    0.1100
     29 H29       -11.2554    1.0680   55.2782 H       1  ZINC000809503567    0.0600
     30 H30       -10.0879    1.6292   53.7974 H       1  ZINC000809503567    0.1400
     31 H31        -8.1181    1.9247   52.3581 H       1  ZINC000809503567    0.1400
     32 H32        -6.4781   -0.8629   50.5446 H       1  ZINC000809503567    0.0900
     33 H33        -7.2321    0.5812   49.8274 H       1  ZINC000809503567    0.0900
     34 H34        -5.9746    1.0290   52.4164 H       1  ZINC000809503567    0.4100
     35 H35        -1.2493    2.9594   52.2616 H       1  ZINC000809503567    0.0800
     36 H36        -1.2082    4.0476   50.8537 H       1  ZINC000809503567    0.0800
     37 H37        -2.3815    4.3292   52.1622 H       1  ZINC000809503567    0.0900
     38 H38        -2.7744    3.8933   48.6683 H       1  ZINC000809503567    0.0700
     39 H39        -1.0812    3.3683   48.8293 H       1  ZINC000809503567    0.0600
     40 H40        -1.9388    0.3952   48.0987 H       1  ZINC000809503567    0.1200
     41 H41        -2.0688   -0.7005   45.8974 H       1  ZINC000809503567    0.1200
     42 H42        -2.3861    0.6532   43.8652 H       1  ZINC000809503567    0.1200
     43 H43        -2.5744    3.1024   44.0343 H       1  ZINC000809503567    0.1200
     44 H44        -2.4491    4.1978   46.2361 H       1  ZINC000809503567    0.1300
     45 H45        -8.3892   -2.1366   51.0906 H       1  ZINC000809503567    0.1400
@<TRIPOS>BOND
     1     1     2    1
     2     1    27    1
     3     1    28    1
     4     1    29    1
     5     2     3    1
     6     3    24   ar
     7     3     4   ar
     8     4     5   ar
     9     4    30    1
    10     5     6   ar
    11     5    31    1
    12     6     7    1
    13     6    23   ar
    14     7     8    1
    15     7    32    1
    16     7    33    1
    17     8     9   am
    18     8    34    1
    19     9    10    2
    20     9    11    1
    21    11    12    2
    22    11    13   am
    23    13    14    1
    24    13    15    1
    25    14    35    1
    26    14    36    1
    27    14    37    1
    28    15    16    1
    29    16    17    1
    30    16    38    1
    31    16    39    1
    32    17    22   ar
    33    17    18   ar
    34    18    19   ar
    35    18    40    1
    36    19    20   ar
    37    19    41    1
    38    20    21   ar
    39    20    42    1
    40    21    22   ar
    41    21    43    1
    42    22    44    1
    43    23    24   ar
    44    23    45    1
    45    24    25    1
    46    25    26    3
@<TRIPOS>SUBSTRUCTURE
     1 ZINC000809503567        1 TEMP              0 ****  ****    0 ROOT


##########                                Name:    ZINC000600609084
##########                DOCK_Rotatable_Bonds:                   8
##########                         Heavy_Atoms:                  30
##########                    Molecular_Weight:             422.548
##########                DOCK_Rotatable_Bonds:                   8
##########                       Formal_Charge:           0.0100005
##########                     HBond_Acceptors:                   6
##########                        HBond_Donors:                   2
##########                         Heavy_Atoms:                  30
##########                          Grid_Score:          -37.950172
##########                     Grid_vdw_energy:          -36.986423
##########                      Grid_es_energy:           -0.963751
##########           Internal_energy_repulsive:           23.099281

@<TRIPOS>MOLECULE
ZINC000600609084
 56 59 1 0 0
SMALL
USER_CHARGES


@<TRIPOS>ATOM
      1 O1        -11.2233   -3.4693   51.9412 O.2     1  ZINC000600609084   -0.5300
      2 C2        -12.1762   -3.3845   52.6866 C.2     1  ZINC000600609084    0.5200
      3 C3        -12.3667   -4.3995   53.7843 C.3     1  ZINC000600609084   -0.1500
      4 C4        -13.6276   -4.0586   54.5810 C.3     1  ZINC000600609084    0.1300
      5 N5        -14.0758   -5.2435   55.3165 N.am    1  ZINC000600609084   -1.1200
      6 S6        -14.4976   -5.1168   56.9130 S.o2    1  ZINC000600609084    2.7000
      7 O7        -15.4687   -4.0823   56.9905 O.2     1  ZINC000600609084   -0.9600
      8 O8        -14.7341   -6.4408   57.3718 O.2     1  ZINC000600609084   -0.9500
      9 C9        -13.0799   -4.5348   57.7824 C.ar    1  ZINC000600609084   -0.6700
     10 C10       -11.8674   -5.2076   57.6466 C.ar    1  ZINC000600609084   -0.0400
     11 C11       -10.7533   -4.7843   58.3042 C.ar    1  ZINC000600609084   -0.1200
     12 C12       -10.8236   -3.6520   59.1332 C.ar    1  ZINC000600609084   -0.0100
     13 C13        -9.6947   -3.1845   59.8278 C.ar    1  ZINC000600609084   -0.1200
     14 C14        -9.8004   -2.0842   60.6215 C.ar    1  ZINC000600609084   -0.0900
     15 C15       -11.0134   -1.4111   60.7575 C.ar    1  ZINC000600609084   -0.1200
     16 C16       -12.1273   -1.8347   60.1004 C.ar    1  ZINC000600609084   -0.0900
     17 C17       -12.0571   -2.9675   59.2714 C.ar    1  ZINC000600609084   -0.0800
     18 C18       -13.1842   -3.4311   58.5724 C.ar    1  ZINC000600609084    0.0200
     19 N19       -13.0617   -2.3795   52.5370 N.am    1  ZINC000600609084   -0.7200
     20 C20       -12.8764   -1.3929   51.4700 C.3     1  ZINC000600609084    0.1400
     21 H21       -12.0328   -1.6774   50.8412 H       1  ZINC000600609084    0.1000
     22 C22       -14.1553   -1.2887   50.6206 C.3     1  ZINC000600609084   -0.1300
     23 C23       -14.6476    0.1681   50.7422 C.3     1  ZINC000600609084   -0.1300
     24 C24       -14.0370    0.6654   52.0759 C.3     1  ZINC000600609084   -0.1200
     25 C25       -12.6350    0.0041   52.0781 C.3     1  ZINC000600609084   -0.0700
     26 H26       -11.9428    0.5755   51.4597 H       1  ZINC000600609084    0.0900
     27 C27       -12.1094   -0.1133   53.4856 C.ar    1  ZINC000600609084   -0.0600
     28 C28       -10.7777    0.1470   53.7500 C.ar    1  ZINC000600609084   -0.1100
     29 C29       -10.2955    0.0393   55.0410 C.ar    1  ZINC000600609084   -0.1200
     30 C30       -11.1452   -0.3283   56.0677 C.ar    1  ZINC000600609084   -0.1200
     31 C31       -12.4769   -0.5877   55.8034 C.ar    1  ZINC000600609084   -0.1200
     32 C32       -12.9601   -0.4758   54.5131 C.ar    1  ZINC000600609084   -0.1100
     33 H33       -12.4706   -5.3924   53.3470 H       1  ZINC000600609084    0.1000
     34 H34       -11.5022   -4.3834   54.4480 H       1  ZINC000600609084    0.1000
     35 H35       -13.4069   -3.2560   55.2847 H       1  ZINC000600609084    0.0900
     36 H36       -14.4133   -3.7365   53.8975 H       1  ZINC000600609084    0.0800
     37 H37       -14.1255   -6.1025   54.8685 H       1  ZINC000600609084    0.4200
     38 H38       -11.8107   -6.0785   57.0103 H       1  ZINC000600609084    0.1400
     39 H39        -9.8203   -5.3161   58.1897 H       1  ZINC000600609084    0.1400
     40 H40        -8.7483   -3.6961   59.7324 H       1  ZINC000600609084    0.1300
     41 H41        -8.9315   -1.7274   61.1545 H       1  ZINC000600609084    0.1300
     42 H42       -11.0701   -0.5406   61.3942 H       1  ZINC000600609084    0.1300
     43 H43       -13.0605   -1.3034   60.2156 H       1  ZINC000600609084    0.1300
     44 H44       -14.1294   -2.9168   58.6644 H       1  ZINC000600609084    0.1500
     45 H45       -13.8215   -2.3095   53.1358 H       1  ZINC000600609084    0.4000
     46 H46       -13.9321   -1.5218   49.5795 H       1  ZINC000600609084    0.0800
     47 H47       -14.9138   -1.9723   51.0023 H       1  ZINC000600609084    0.0700
     48 H48       -14.2801    0.7659   49.9081 H       1  ZINC000600609084    0.0700
     49 H49       -15.7363    0.2006   50.7855 H       1  ZINC000600609084    0.0700
     50 H50       -13.9514    1.7520   52.0803 H       1  ZINC000600609084    0.0700
     51 H51       -14.6284    0.3201   52.9240 H       1  ZINC000600609084    0.0700
     52 H52       -10.1141    0.4342   52.9479 H       1  ZINC000600609084    0.1200
     53 H53        -9.2551    0.2420   55.2475 H       1  ZINC000600609084    0.1200
     54 H54       -10.7682   -0.4132   57.0762 H       1  ZINC000600609084    0.1200
     55 H55       -13.1405   -0.8753   56.6055 H       1  ZINC000600609084    0.1200
     56 H56       -14.0006   -0.6786   54.3066 H       1  ZINC000600609084    0.1200
@<TRIPOS>BOND
     1     1     2    2
     2     2     3    1
     3     2    19   am
     4     3     4    1
     5     3    33    1
     6     3    34    1
     7     4     5    1
     8     4    35    1
     9     4    36    1
    10     5     6   am
    11     5    37    1
    12     6     7    2
    13     6     8    2
    14     6     9    1
    15     9    18   ar
    16     9    10   ar
    17    10    11   ar
    18    10    38    1
    19    11    12   ar
    20    11    39    1
    21    12    17   ar
    22    12    13   ar
    23    13    14   ar
    24    13    40    1
    25    14    15   ar
    26    14    41    1
    27    15    16   ar
    28    15    42    1
    29    16    17   ar
    30    16    43    1
    31    17    18   ar
    32    18    44    1
    33    19    20    1
    34    19    45    1
    35    20    21    1
    36    20    25    1
    37    20    22    1
    38    22    23    1
    39    22    46    1
    40    22    47    1
    41    23    24    1
    42    23    48    1
    43    23    49    1
    44    24    25    1
    45    24    50    1
    46    24    51    1
    47    25    26    1
    48    25    27    1
    49    27    32   ar
    50    27    28   ar
    51    28    29   ar
    52    28    52    1
    53    29    30   ar
    54    29    53    1
    55    30    31   ar
    56    30    54    1
    57    31    32   ar
    58    31    55    1
    59    32    56    1
@<TRIPOS>SUBSTRUCTURE
     1 ZINC000600609084        1 TEMP              0 ****  ****    0 ROOT


##########                                Name:    ZINC000533037883
##########                DOCK_Rotatable_Bonds:                   7
##########                         Heavy_Atoms:                  27
##########                    Molecular_Weight:             368.479
##########                DOCK_Rotatable_Bonds:                   7
##########                       Formal_Charge:          0.00999947
##########                     HBond_Acceptors:                   6
##########                        HBond_Donors:                   1
##########                         Heavy_Atoms:                  27
##########                          Grid_Score:          -37.892040
##########                     Grid_vdw_energy:          -38.417614
##########                      Grid_es_energy:            0.525575
##########           Internal_energy_repulsive:           16.369265

@<TRIPOS>MOLECULE
ZINC000533037883
 55 58 1 0 0
SMALL
USER_CHARGES


@<TRIPOS>ATOM
      1 O1         -3.8995    2.1142   51.7916 O.2     1  ZINC000533037883   -0.5900
      2 C2         -3.9612    2.0586   50.5785 C.2     1  ZINC000533037883    0.7100
      3 N3         -5.0266    1.4865   49.9834 N.am    1  ZINC000533037883   -0.7500
      4 C4         -6.1075    0.9261   50.7983 C.3     1  ZINC000533037883    0.1400
      5 C5         -6.9224    2.0639   51.4165 C.3     1  ZINC000533037883   -0.0500
      6 C6         -8.0474    1.4876   52.2372 C.2     1  ZINC000533037883   -0.2300
      7 C7         -8.6429    0.2885   52.0406 C.2     1  ZINC000533037883    0.0600
      8 N8         -9.6001    0.1448   52.9848 N.pl3   1  ZINC000533037883   -0.3200
      9 C9        -10.4511   -0.9590   53.1358 C.ar    1  ZINC000533037883    0.1600
     10 C10       -11.4104   -0.9656   54.1395 C.ar    1  ZINC000533037883   -0.1400
     11 C11       -12.2473   -2.0545   54.2858 C.ar    1  ZINC000533037883   -0.0900
     12 C12       -12.1302   -3.1376   53.4342 C.ar    1  ZINC000533037883   -0.1300
     13 C13       -11.1758   -3.1339   52.4337 C.ar    1  ZINC000533037883   -0.0900
     14 C14       -10.3401   -2.0453   52.2785 C.ar    1  ZINC000533037883   -0.1200
     15 N15        -9.5904    1.2940   53.7860 N.2     1  ZINC000533037883   -0.2900
     16 C16        -8.6565    2.0954   53.3405 C.2     1  ZINC000533037883    0.0700
     17 N17        -2.9669    2.5741   49.8288 N.am    1  ZINC000533037883   -0.6300
     18 C18        -1.7991    3.2009   50.4630 C.3     1  ZINC000533037883    0.1100
     19 C19        -0.5284    2.5444   49.9141 C.3     1  ZINC000533037883   -0.1400
     20 C20        -0.5347    2.6289   48.3860 C.3     1  ZINC000533037883   -0.1100
     21 C21        -1.7456    1.8713   47.8366 C.3     1  ZINC000533037883   -0.0900
     22 H22        -1.7033    0.8321   48.1626 H       1  ZINC000533037883    0.0800
     23 C23        -1.7325    1.9278   46.3076 C.3     1  ZINC000533037883   -0.1200
     24 H24        -1.6161    2.9543   45.9601 H       1  ZINC000533037883    0.0900
     25 C25        -0.6136    1.0185   45.7306 C.3     1  ZINC000533037883   -0.1500
     26 C26        -1.2119    0.6579   44.3475 C.3     1  ZINC000533037883    0.0500
     27 O27        -2.6243    0.5257   44.5726 O.3     1  ZINC000533037883   -0.3900
     28 C28        -3.0122    1.2919   45.7235 C.3     1  ZINC000533037883    0.0500
     29 C29        -3.0272    2.5147   48.3620 C.3     1  ZINC000533037883    0.1300
     30 H30        -5.0777    1.4456   49.0156 H       1  ZINC000533037883    0.4000
     31 H31        -6.7555    0.3141   50.1711 H       1  ZINC000533037883    0.0700
     32 H32        -5.6828    0.3107   51.5915 H       1  ZINC000533037883    0.0700
     33 H33        -6.2778    2.6666   52.0563 H       1  ZINC000533037883    0.0800
     34 H34        -7.3340    2.6884   50.6237 H       1  ZINC000533037883    0.0800
     35 H35        -8.3980   -0.4253   51.2680 H       1  ZINC000533037883    0.1800
     36 H36       -11.5018   -0.1202   54.8054 H       1  ZINC000533037883    0.1300
     37 H37       -12.9937   -2.0601   55.0664 H       1  ZINC000533037883    0.1300
     38 H38       -12.7854   -3.9882   53.5510 H       1  ZINC000533037883    0.1300
     39 H39       -11.0867   -3.9813   51.7701 H       1  ZINC000533037883    0.1300
     40 H40        -9.5951   -2.0429   51.4966 H       1  ZINC000533037883    0.1400
     41 H41        -8.4036    3.0620   53.7503 H       1  ZINC000533037883    0.1900
     42 H42        -1.7875    4.2667   50.2350 H       1  ZINC000533037883    0.0700
     43 H43        -1.8480    3.0565   51.5423 H       1  ZINC000533037883    0.0800
     44 H44         0.3469    3.0643   50.3035 H       1  ZINC000533037883    0.0800
     45 H45        -0.4975    1.4989   50.2206 H       1  ZINC000533037883    0.0700
     46 H46        -0.5906    3.6736   48.0803 H       1  ZINC000533037883    0.0700
     47 H47         0.3802    2.1844   47.9941 H       1  ZINC000533037883    0.0700
     48 H48         0.3220    1.5672   45.6229 H       1  ZINC000533037883    0.0800
     49 H49        -0.4762    0.1277   46.3435 H       1  ZINC000533037883    0.0800
     50 H50        -1.0160    1.4556   43.6309 H       1  ZINC000533037883    0.0600
     51 H51        -0.7961   -0.2839   43.9893 H       1  ZINC000533037883    0.0900
     52 H52        -3.4692    0.6379   46.4662 H       1  ZINC000533037883    0.0700
     53 H53        -3.7175    2.0692   45.4296 H       1  ZINC000533037883    0.0700
     54 H54        -3.8873    1.9200   48.0542 H       1  ZINC000533037883    0.1000
     55 H55        -3.1182    3.5256   47.9647 H       1  ZINC000533037883    0.0700
@<TRIPOS>BOND
     1     1     2    2
     2     2     3   am
     3     2    17   am
     4     3     4    1
     5     3    30    1
     6     4     5    1
     7     4    31    1
     8     4    32    1
     9     5     6    1
    10     5    33    1
    11     5    34    1
    12     6    16    1
    13     6     7    2
    14     7     8    1
    15     7    35    1
    16     8     9    1
    17     8    15    1
    18     9    14   ar
    19     9    10   ar
    20    10    11   ar
    21    10    36    1
    22    11    12   ar
    23    11    37    1
    24    12    13   ar
    25    12    38    1
    26    13    14   ar
    27    13    39    1
    28    14    40    1
    29    15    16    2
    30    16    41    1
    31    17    29    1
    32    17    18    1
    33    18    19    1
    34    18    42    1
    35    18    43    1
    36    19    20    1
    37    19    44    1
    38    19    45    1
    39    20    21    1
    40    20    46    1
    41    20    47    1
    42    21    22    1
    43    21    23    1
    44    21    29    1
    45    23    24    1
    46    23    28    1
    47    23    25    1
    48    25    26    1
    49    25    48    1
    50    25    49    1
    51    26    27    1
    52    26    50    1
    53    26    51    1
    54    27    28    1
    55    28    52    1
    56    28    53    1
    57    29    54    1
    58    29    55    1
@<TRIPOS>SUBSTRUCTURE
     1 ZINC000533037883        1 TEMP              0 ****  ****    0 ROOT


##########                                Name:    ZINC000479580180
##########                DOCK_Rotatable_Bonds:                   5
##########                         Heavy_Atoms:                  30
##########                    Molecular_Weight:             404.444
##########                DOCK_Rotatable_Bonds:                   5
##########                       Formal_Charge:           0.0299995
##########                     HBond_Acceptors:                   7
##########                        HBond_Donors:                   1
##########                         Heavy_Atoms:                  30
##########                          Grid_Score:          -37.801544
##########                     Grid_vdw_energy:          -38.575222
##########                      Grid_es_energy:            0.773678
##########           Internal_energy_repulsive:           16.278095

@<TRIPOS>MOLECULE
ZINC000479580180
 51 55 1 0 0
SMALL
USER_CHARGES


@<TRIPOS>ATOM
      1 O1        -13.4921   -6.1933   55.6568 O.2     1  ZINC000479580180   -0.5200
      2 C2        -13.4822   -5.0152   55.9447 C.2     1  ZINC000479580180    0.5200
      3 C3        -13.6843   -4.5875   57.3755 C.3     1  ZINC000479580180   -0.0700
      4 C4        -12.3460   -4.3119   58.0112 C.2     1  ZINC000479580180   -0.1600
      5 C5        -11.2227   -5.0266   57.8631 C.2     1  ZINC000479580180    0.0300
      6 O6        -10.2269   -4.4795   58.5826 O.3     1  ZINC000479580180   -0.1900
      7 C7        -10.6536   -3.3800   59.2356 C.ar    1  ZINC000479580180    0.0800
      8 C8        -10.0356   -2.4755   60.0893 C.ar    1  ZINC000479580180   -0.1400
      9 C9        -10.7585   -1.4217   60.6125 C.ar    1  ZINC000479580180    0.1300
     10 F10       -10.1550   -0.5428   61.4424 F       1  ZINC000479580180   -0.1300
     11 C11       -12.1003   -1.2563   60.2935 C.ar    1  ZINC000479580180   -0.1600
     12 C12       -12.7257   -2.1371   59.4550 C.ar    1  ZINC000479580180   -0.0400
     13 C13       -12.0097   -3.2026   58.9123 C.ar    1  ZINC000479580180   -0.1200
     14 N14       -13.2850   -4.0887   54.9859 N.am    1  ZINC000479580180   -0.6200
     15 C15       -13.2585   -2.6585   55.3211 C.3     1  ZINC000479580180    0.1100
     16 C16       -11.9600   -2.0498   54.7822 C.3     1  ZINC000479580180   -0.1300
     17 C17       -11.8447   -2.3469   53.2853 C.3     1  ZINC000479580180   -0.0100
     18 C18       -10.5852   -1.7203   52.7447 C.2     1  ZINC000479580180    0.3000
     19 N19       -10.0852   -0.5695   53.1097 N.2     1  ZINC000479580180   -0.5300
     20 C20        -8.9605   -0.3258   52.4238 C.2     1  ZINC000479580180    0.2700
     21 C21        -8.1077    0.8810   52.5613 C.ar    1  ZINC000479580180   -0.0200
     22 C22        -6.9665    1.0238   51.7748 C.ar    1  ZINC000479580180   -0.0800
     23 C23        -6.1772    2.1484   51.9064 C.ar    1  ZINC000479580180   -0.1300
     24 C24        -6.5170    3.1323   52.8172 C.ar    1  ZINC000479580180   -0.1000
     25 C25        -7.6489    2.9954   53.6006 C.ar    1  ZINC000479580180   -0.1200
     26 C26        -8.4485    1.8778   53.4731 C.ar    1  ZINC000479580180   -0.0800
     27 N27        -8.7370   -1.3334   51.6090 N.2     1  ZINC000479580180   -0.3000
     28 N28        -9.7800   -2.2525   51.8078 N.pl3   1  ZINC000479580180   -0.4800
     29 C29       -11.7959   -3.8607   53.0663 C.3     1  ZINC000479580180   -0.1400
     30 C30       -13.0865   -4.4902   53.5866 C.3     1  ZINC000479580180    0.1200
     31 H31       -14.2922   -3.6830   57.4020 H       1  ZINC000479580180    0.1100
     32 H32       -14.1905   -5.3817   57.9242 H       1  ZINC000479580180    0.1100
     33 H33       -11.1301   -5.9138   57.2541 H       1  ZINC000479580180    0.2100
     34 H34        -8.9928   -2.5961   60.3433 H       1  ZINC000479580180    0.1500
     35 H35       -12.6530   -0.4273   60.7103 H       1  ZINC000479580180    0.1400
     36 H36       -13.7693   -2.0049   59.2103 H       1  ZINC000479580180    0.1300
     37 H37       -14.1131   -2.1601   54.8636 H       1  ZINC000479580180    0.0800
     38 H38       -13.2979   -2.5360   56.4034 H       1  ZINC000479580180    0.0900
     39 H39       -11.9712   -0.9712   54.9393 H       1  ZINC000479580180    0.0900
     40 H40       -11.1092   -2.4854   55.3062 H       1  ZINC000479580180    0.0700
     41 H41       -12.7085   -1.9325   52.7654 H       1  ZINC000479580180    0.1200
     42 H42        -6.6998    0.2559   51.0638 H       1  ZINC000479580180    0.1400
     43 H43        -5.2924    2.2602   51.2973 H       1  ZINC000479580180    0.1300
     44 H44        -5.8962    4.0103   52.9175 H       1  ZINC000479580180    0.1300
     45 H45        -7.9094    3.7665   54.3105 H       1  ZINC000479580180    0.1300
     46 H46        -9.3321    1.7721   54.0850 H       1  ZINC000479580180    0.1300
     47 H47        -9.8996   -3.1016   51.3543 H       1  ZINC000479580180    0.4400
     48 H48       -11.6903   -4.0710   52.0020 H       1  ZINC000479580180    0.0900
     49 H49       -10.9466   -4.2792   53.6063 H       1  ZINC000479580180    0.0700
     50 H50       -13.0147   -5.5761   53.5232 H       1  ZINC000479580180    0.1000
     51 H51       -13.9293   -4.1422   52.9895 H       1  ZINC000479580180    0.0800
@<TRIPOS>BOND
     1     1     2    2
     2     2     3    1
     3     2    14   am
     4     3     4    1
     5     3    31    1
     6     3    32    1
     7     4    13    1
     8     4     5    2
     9     5     6    1
    10     5    33    1
    11     6     7    1
    12     7    13   ar
    13     7     8   ar
    14     8     9   ar
    15     8    34    1
    16     9    10    1
    17     9    11   ar
    18    11    12   ar
    19    11    35    1
    20    12    13   ar
    21    12    36    1
    22    14    30    1
    23    14    15    1
    24    15    16    1
    25    15    37    1
    26    15    38    1
    27    16    17    1
    28    16    39    1
    29    16    40    1
    30    17    18    1
    31    17    29    1
    32    17    41    1
    33    18    28    1
    34    18    19    2
    35    19    20    1
    36    20    21    1
    37    20    27    2
    38    21    26   ar
    39    21    22   ar
    40    22    23   ar
    41    22    42    1
    42    23    24   ar
    43    23    43    1
    44    24    25   ar
    45    24    44    1
    46    25    26   ar
    47    25    45    1
    48    26    46    1
    49    27    28    1
    50    28    47    1
    51    29    30    1
    52    29    48    1
    53    29    49    1
    54    30    50    1
    55    30    51    1
@<TRIPOS>SUBSTRUCTURE
     1 ZINC000479580180        1 TEMP              0 ****  ****    0 ROOT


##########                                Name:    ZINC000457806032
##########                DOCK_Rotatable_Bonds:                   8
##########                         Heavy_Atoms:                  24
##########                    Molecular_Weight:             387.911
##########                DOCK_Rotatable_Bonds:                   8
##########                       Formal_Charge:        -1.49012e-07
##########                     HBond_Acceptors:                   9
##########                        HBond_Donors:                   2
##########                         Heavy_Atoms:                  24
##########                          Grid_Score:          -37.783588
##########                     Grid_vdw_energy:          -37.299751
##########                      Grid_es_energy:           -0.483835
##########           Internal_energy_repulsive:            8.815373

@<TRIPOS>MOLECULE
ZINC000457806032
 42 43 1 0 0
SMALL
USER_CHARGES


@<TRIPOS>ATOM
      1 C1          0.9500    0.6337   41.2254 C.3     1  ZINC000457806032    0.0800
      2 N2         -0.1169    0.1032   42.0779 N.am    1  ZINC000457806032   -1.0100
      3 C3         -1.0631   -0.8782   41.5416 C.3     1  ZINC000457806032    0.0900
      4 S4         -0.2530    0.6127   43.6476 S.o2    1  ZINC000457806032    2.7900
      5 O5          0.8997    0.1334   44.3264 O.2     1  ZINC000457806032   -0.9700
      6 O6         -0.6079    1.9876   43.5939 O.2     1  ZINC000457806032   -0.9700
      7 N7         -1.5484   -0.1791   44.3093 N.am    1  ZINC000457806032   -1.1300
      8 C8         -1.9231    0.0673   45.7040 C.3     1  ZINC000457806032    0.1100
      9 C9         -2.4085    1.5104   45.8543 C.3     1  ZINC000457806032    0.1100
     10 N10        -3.1393    1.6508   47.1163 N.am    1  ZINC000457806032   -0.7300
     11 C11        -2.5312    2.1913   48.1907 C.2     1  ZINC000457806032    0.5800
     12 O12        -1.3759    2.5639   48.1122 O.2     1  ZINC000457806032   -0.5300
     13 C13        -3.2651    2.3308   49.4594 C.2     1  ZINC000457806032   -0.1500
     14 C14        -2.7897    3.0461   50.5169 C.2     1  ZINC000457806032   -0.2200
     15 S15        -3.8925    2.9960   51.8176 S.3     1  ZINC000457806032    0.2400
     16 C16        -5.0091    1.9906   50.9073 C.2     1  ZINC000457806032   -0.1700
     17 C17        -6.3068    1.4919   51.4118 C.ar    1  ZINC000457806032   -0.0100
     18 C18        -7.1532    2.3404   52.1264 C.ar    1  ZINC000457806032   -0.0900
     19 C19        -8.3624    1.8697   52.5947 C.ar    1  ZINC000457806032   -0.1000
     20 C20        -8.7365    0.5579   52.3573 C.ar    1  ZINC000457806032   -0.0300
     21 Cl21      -10.2595   -0.0276   52.9501 Cl      1  ZINC000457806032   -0.0600
     22 C22        -7.9010   -0.2886   51.6485 C.ar    1  ZINC000457806032   -0.1000
     23 C23        -6.6919    0.1726   51.1703 C.ar    1  ZINC000457806032   -0.1000
     24 C24        -4.5129    1.7469   49.6839 C.2     1  ZINC000457806032   -0.0700
     25 H25         0.5947    1.5277   40.7128 H       1  ZINC000457806032    0.0600
     26 H26         1.8142    0.8865   41.8398 H       1  ZINC000457806032    0.0800
     27 H27         1.2348   -0.1182   40.4894 H       1  ZINC000457806032    0.0800
     28 H28        -0.6780   -1.8839   41.7097 H       1  ZINC000457806032    0.0600
     29 H29        -2.0242   -0.7684   42.0439 H       1  ZINC000457806032    0.0700
     30 H30        -1.1913   -0.7125   40.4719 H       1  ZINC000457806032    0.0700
     31 H31        -2.0590   -0.8059   43.7733 H       1  ZINC000457806032    0.4200
     32 H32        -2.7216   -0.6165   45.9918 H       1  ZINC000457806032    0.0700
     33 H33        -1.0575   -0.0938   46.3467 H       1  ZINC000457806032    0.0900
     34 H34        -1.5515    2.1839   45.8539 H       1  ZINC000457806032    0.0800
     35 H35        -3.0675    1.7605   45.0229 H       1  ZINC000457806032    0.0800
     36 H36        -4.0610    1.3548   47.1785 H       1  ZINC000457806032    0.4000
     37 H37        -1.8462    3.5715   50.5300 H       1  ZINC000457806032    0.1700
     38 H38        -6.8622    3.3637   52.3128 H       1  ZINC000457806032    0.1400
     39 H39        -9.0184    2.5256   53.1478 H       1  ZINC000457806032    0.1400
     40 H40        -8.1980   -1.3109   51.4664 H       1  ZINC000457806032    0.1400
     41 H41        -6.0411   -0.4885   50.6173 H       1  ZINC000457806032    0.1300
     42 H42        -5.0270    1.1488   48.9460 H       1  ZINC000457806032    0.1600
@<TRIPOS>BOND
     1     1     2    1
     2     1    25    1
     3     1    26    1
     4     1    27    1
     5     2     3    1
     6     2     4   am
     7     3    28    1
     8     3    29    1
     9     3    30    1
    10     4     5    2
    11     4     6    2
    12     4     7   am
    13     7     8    1
    14     7    31    1
    15     8     9    1
    16     8    32    1
    17     8    33    1
    18     9    10    1
    19     9    34    1
    20     9    35    1
    21    10    11   am
    22    10    36    1
    23    11    12    2
    24    11    13    1
    25    13    24    1
    26    13    14    2
    27    14    15    1
    28    14    37    1
    29    15    16    1
    30    16    17    1
    31    16    24    2
    32    17    23   ar
    33    17    18   ar
    34    18    19   ar
    35    18    38    1
    36    19    20   ar
    37    19    39    1
    38    20    21    1
    39    20    22   ar
    40    22    23   ar
    41    22    40    1
    42    23    41    1
    43    24    42    1
@<TRIPOS>SUBSTRUCTURE
     1 ZINC000457806032        1 TEMP              0 ****  ****    0 ROOT


##########                                Name:    ZINC000492313853
##########                DOCK_Rotatable_Bonds:                   8
##########                         Heavy_Atoms:                  30
##########                    Molecular_Weight:             418.422
##########                DOCK_Rotatable_Bonds:                   8
##########                       Formal_Charge:          -0.0100008
##########                     HBond_Acceptors:                  10
##########                        HBond_Donors:                   2
##########                         Heavy_Atoms:                  30
##########                          Grid_Score:          -37.781075
##########                     Grid_vdw_energy:          -37.962048
##########                      Grid_es_energy:            0.180973
##########           Internal_energy_repulsive:            8.580979

@<TRIPOS>MOLECULE
ZINC000492313853
 51 53 1 0 0
SMALL
USER_CHARGES


@<TRIPOS>ATOM
      1 C1         -6.5543    2.6032   52.5799 C.3     1  ZINC000492313853    0.0900
      2 N2         -6.6828    1.4179   51.7285 N.pl3   1  ZINC000492313853   -0.6200
      3 C3         -5.6298    1.0914   50.7639 C.3     1  ZINC000492313853    0.1000
      4 C4         -7.8038    0.6030   51.8361 C.ar    1  ZINC000492313853    0.4100
      5 C5         -9.0302    1.1603   52.1827 C.ar    1  ZINC000492313853   -0.2400
      6 C6        -10.1378    0.3378   52.2857 C.ar    1  ZINC000492313853   -0.0100
      7 C7         -9.9808   -1.0192   52.0377 C.ar    1  ZINC000492313853   -0.2300
      8 C8        -11.1597   -1.9526   52.1376 C.3     1  ZINC000492313853    0.2000
      9 N9        -10.8987   -2.9606   53.1682 N.am    1  ZINC000492313853   -0.7300
     10 C10       -11.2978   -2.7456   54.4374 C.2     1  ZINC000492313853    0.7100
     11 O11       -11.8759   -1.7158   54.7269 O.2     1  ZINC000492313853   -0.5600
     12 N12       -11.0562   -3.6722   55.3859 N.am    1  ZINC000492313853   -0.6600
     13 C13       -11.4679   -3.4491   56.7001 C.2     1  ZINC000492313853    0.3300
     14 C14       -10.8231   -2.6892   57.6238 C.2     1  ZINC000492313853   -0.2600
     15 C15       -11.5732   -2.7306   58.8140 C.2     1  ZINC000492313853    0.1200
     16 C16       -11.2328   -2.0390   60.0823 C.ar    1  ZINC000492313853   -0.0100
     17 C17        -9.9280   -2.0737   60.5691 C.ar    1  ZINC000492313853   -0.0600
     18 C18        -9.6168   -1.4284   61.7490 C.ar    1  ZINC000492313853   -0.1200
     19 C19       -10.5976   -0.7483   62.4476 C.ar    1  ZINC000492313853   -0.0700
     20 C20       -11.8950   -0.7106   61.9688 C.ar    1  ZINC000492313853   -0.1900
     21 C21       -12.9583    0.0329   62.7353 C.3     1  ZINC000492313853    0.5100
     22 F22       -13.9444   -0.8660   63.1561 F       1  ZINC000492313853   -0.1800
     23 F23       -12.3832    0.6502   63.8513 F       1  ZINC000492313853   -0.1800
     24 F24       -13.5346    1.0046   61.9102 F       1  ZINC000492313853   -0.1800
     25 C25       -12.2160   -1.3479   60.7876 C.ar    1  ZINC000492313853   -0.0400
     26 N26       -12.6287   -3.4889   58.6071 N.2     1  ZINC000492313853   -0.2700
     27 N27       -12.5886   -3.9477   57.2845 N.pl3   1  ZINC000492313853   -0.3900
     28 C28       -13.5770   -4.8203   56.6457 C.3     1  ZINC000492313853    0.1000
     29 C29        -8.7338   -1.5047   51.6981 C.ar    1  ZINC000492313853    0.1700
     30 N30        -7.6957   -0.6959   51.6023 N.ar    1  ZINC000492313853   -0.5400
     31 H31        -7.0011    3.4614   52.0778 H       1  ZINC000492313853    0.0600
     32 H32        -7.0670    2.4284   53.5259 H       1  ZINC000492313853    0.0700
     33 H33        -5.4995    2.8017   52.7696 H       1  ZINC000492313853    0.0700
     34 H34        -4.8380    1.8383   50.8235 H       1  ZINC000492313853    0.0700
     35 H35        -5.2193    0.1079   50.9928 H       1  ZINC000492313853    0.0600
     36 H36        -6.0482    1.0851   49.7574 H       1  ZINC000492313853    0.0600
     37 H37        -9.1166    2.2205   52.3692 H       1  ZINC000492313853    0.1300
     38 H38       -11.1028    0.7421   52.5534 H       1  ZINC000492313853    0.1400
     39 H39       -12.0515   -1.3846   52.4026 H       1  ZINC000492313853    0.0800
     40 H40       -11.3150   -2.4458   51.1781 H       1  ZINC000492313853    0.0800
     41 H41       -10.4385   -3.7826   52.9371 H       1  ZINC000492313853    0.4000
     42 H42       -10.5961   -4.4943   55.1547 H       1  ZINC000492313853    0.4100
     43 H43        -9.8996   -2.1502   57.4720 H       1  ZINC000492313853    0.1800
     44 H44        -9.1614   -2.6049   60.0245 H       1  ZINC000492313853    0.1400
     45 H45        -8.6056   -1.4549   62.1274 H       1  ZINC000492313853    0.1400
     46 H46       -10.3499   -0.2450   63.3705 H       1  ZINC000492313853    0.1400
     47 H47       -13.2291   -1.3178   60.4146 H       1  ZINC000492313853    0.1400
     48 H48       -14.3553   -4.2118   56.1854 H       1  ZINC000492313853    0.0800
     49 H49       -13.0882   -5.4242   55.8812 H       1  ZINC000492313853    0.0800
     50 H50       -14.0227   -5.4741   57.3953 H       1  ZINC000492313853    0.1000
     51 H51        -8.6071   -2.5597   51.5042 H       1  ZINC000492313853    0.1600
@<TRIPOS>BOND
     1     1     2    1
     2     1    31    1
     3     1    32    1
     4     1    33    1
     5     2     3    1
     6     2     4    1
     7     3    34    1
     8     3    35    1
     9     3    36    1
    10     4    30   ar
    11     4     5   ar
    12     5     6   ar
    13     5    37    1
    14     6     7   ar
    15     6    38    1
    16     7     8    1
    17     7    29   ar
    18     8     9    1
    19     8    39    1
    20     8    40    1
    21     9    10   am
    22     9    41    1
    23    10    11    2
    24    10    12   am
    25    12    13    1
    26    12    42    1
    27    13    27    1
    28    13    14    2
    29    14    15    1
    30    14    43    1
    31    15    16    1
    32    15    26    2
    33    16    25   ar
    34    16    17   ar
    35    17    18   ar
    36    17    44    1
    37    18    19   ar
    38    18    45    1
    39    19    20   ar
    40    19    46    1
    41    20    21    1
    42    20    25   ar
    43    21    22    1
    44    21    23    1
    45    21    24    1
    46    25    47    1
    47    26    27    1
    48    27    28    1
    49    28    48    1
    50    28    49    1
    51    28    50    1
    52    29    30   ar
    53    29    51    1
@<TRIPOS>SUBSTRUCTURE
     1 ZINC000492313853        1 TEMP              0 ****  ****    0 ROOT


##########                                Name:    ZINC001065334255
##########                DOCK_Rotatable_Bonds:                   7
##########                         Heavy_Atoms:                  23
##########                    Molecular_Weight:             346.448
##########                DOCK_Rotatable_Bonds:                   7
##########                       Formal_Charge:        -5.81145e-07
##########                     HBond_Acceptors:                   8
##########                        HBond_Donors:                   1
##########                         Heavy_Atoms:                  23
##########                          Grid_Score:          -37.775303
##########                     Grid_vdw_energy:          -35.881001
##########                      Grid_es_energy:           -1.894303
##########           Internal_energy_repulsive:           20.730650

@<TRIPOS>MOLECULE
ZINC001065334255
 49 50 1 0 0
SMALL
USER_CHARGES


@<TRIPOS>ATOM
      1 C1         -9.7993    0.2770   63.5693 C.3     1  ZINC001065334255   -0.1500
      2 C2        -11.2352    0.7608   63.7810 C.3     1  ZINC001065334255   -0.0800
      3 C3        -11.3341    1.4942   65.1201 C.3     1  ZINC001065334255   -0.1500
      4 C4        -11.6251    1.7126   62.6483 C.3     1  ZINC001065334255   -0.1400
      5 C5        -11.6522    0.9574   61.3445 C.2     1  ZINC001065334255    0.5100
      6 O6        -12.6766    0.4246   60.9735 O.2     1  ZINC001065334255   -0.5300
      7 N7        -10.5380    0.8740   60.5907 N.am    1  ZINC001065334255   -0.7300
      8 C8        -10.5649    0.1414   59.3223 C.3     1  ZINC001065334255    0.1300
      9 C9        -10.5901   -1.3626   59.6027 C.3     1  ZINC001065334255    0.0700
     10 H10       -11.5418   -1.6316   60.0610 H       1  ZINC001065334255    0.0700
     11 C11       -10.4197   -2.1315   58.2876 C.3     1  ZINC001065334255    0.0800
     12 N12       -10.2593   -3.5599   58.6025 N.am    1  ZINC001065334255   -0.6100
     13 C13       -11.0077   -4.4949   57.9843 C.2     1  ZINC001065334255    0.5400
     14 O14       -10.8603   -5.6674   58.2573 O.2     1  ZINC001065334255   -0.5200
     15 C15       -12.0274   -4.0836   56.9539 C.3     1  ZINC001065334255   -0.1100
     16 H16       -12.5985   -3.2282   57.3150 H       1  ZINC001065334255    0.1200
     17 C17       -12.9735   -5.2586   56.6504 C.3     1  ZINC001065334255   -0.1000
     18 C18       -13.7724   -4.9328   55.3727 C.3     1  ZINC001065334255   -0.5900
     19 S19       -12.6913   -3.8176   54.4066 S.o2    1  ZINC001065334255    2.3900
     20 O20       -12.2423   -4.4919   53.2391 O.2     1  ZINC001065334255   -0.9300
     21 O21       -13.3096   -2.5431   54.2941 O.2     1  ZINC001065334255   -0.9300
     22 C22       -11.3209   -3.7259   55.6209 C.3     1  ZINC001065334255   -0.5900
     23 C23        -9.2574   -3.9374   59.6119 C.3     1  ZINC001065334255    0.0600
     24 C24        -9.4844   -3.0805   60.8626 C.3     1  ZINC001065334255    0.0500
     25 O25        -9.5207   -1.7011   60.4890 O.3     1  ZINC001065334255   -0.3700
     26 H26        -9.5215   -0.4010   64.3763 H       1  ZINC001065334255    0.0600
     27 H27        -9.7288   -0.2455   62.6152 H       1  ZINC001065334255    0.0500
     28 H28        -9.1244    1.1330   63.5654 H       1  ZINC001065334255    0.0600
     29 H29       -11.9101   -0.0951   63.7849 H       1  ZINC001065334255    0.0800
     30 H30       -10.6591    2.3502   65.1163 H       1  ZINC001065334255    0.0500
     31 H31       -12.3571    1.8388   65.2710 H       1  ZINC001065334255    0.0700
     32 H32       -11.0563    0.8162   65.9271 H       1  ZINC001065334255    0.0500
     33 H33       -12.6124    2.1293   62.8474 H       1  ZINC001065334255    0.0900
     34 H34       -10.8959    2.5203   62.5853 H       1  ZINC001065334255    0.0900
     35 H35        -9.7184    1.2992   60.8881 H       1  ZINC001065334255    0.4000
     36 H36       -11.4556    0.4211   58.7599 H       1  ZINC001065334255    0.0900
     37 H37        -9.6761    0.3878   58.7415 H       1  ZINC001065334255    0.0800
     38 H38       -11.3015   -1.9900   57.6626 H       1  ZINC001065334255    0.1100
     39 H39        -9.5354   -1.7697   57.7628 H       1  ZINC001065334255    0.0900
     40 H40       -12.3915   -6.1674   56.4968 H       1  ZINC001065334255    0.1000
     41 H41       -13.6596   -5.4018   57.4851 H       1  ZINC001065334255    0.1000
     42 H42       -13.9752   -5.8443   54.8104 H       1  ZINC001065334255    0.1500
     43 H43       -14.7048   -4.4289   55.6276 H       1  ZINC001065334255    0.1400
     44 H44       -10.9056   -2.7187   55.6601 H       1  ZINC001065334255    0.1400
     45 H45       -10.5465   -4.4560   55.3863 H       1  ZINC001065334255    0.1500
     46 H46        -9.3695   -4.9919   59.8641 H       1  ZINC001065334255    0.1000
     47 H47        -8.2561   -3.7575   59.2205 H       1  ZINC001065334255    0.0900
     48 H48       -10.4318   -3.3565   61.3258 H       1  ZINC001065334255    0.0600
     49 H49        -8.6711   -3.2450   61.5693 H       1  ZINC001065334255    0.1100
@<TRIPOS>BOND
     1     1     2    1
     2     1    26    1
     3     1    27    1
     4     1    28    1
     5     2     3    1
     6     2     4    1
     7     2    29    1
     8     3    30    1
     9     3    31    1
    10     3    32    1
    11     4     5    1
    12     4    33    1
    13     4    34    1
    14     5     6    2
    15     5     7   am
    16     7     8    1
    17     7    35    1
    18     8     9    1
    19     8    36    1
    20     8    37    1
    21     9    10    1
    22     9    25    1
    23     9    11    1
    24    11    12    1
    25    11    38    1
    26    11    39    1
    27    12    13   am
    28    12    23    1
    29    13    14    2
    30    13    15    1
    31    15    16    1
    32    15    22    1
    33    15    17    1
    34    17    18    1
    35    17    40    1
    36    17    41    1
    37    18    19    1
    38    18    42    1
    39    18    43    1
    40    19    20    2
    41    19    21    2
    42    19    22    1
    43    22    44    1
    44    22    45    1
    45    23    24    1
    46    23    46    1
    47    23    47    1
    48    24    25    1
    49    24    48    1
    50    24    49    1
@<TRIPOS>SUBSTRUCTURE
     1 ZINC001065334255        1 TEMP              0 ****  ****    0 ROOT


##########                                Name:    ZINC000746432885
##########                DOCK_Rotatable_Bonds:                  11
##########                         Heavy_Atoms:                  31
##########                    Molecular_Weight:              419.44
##########                DOCK_Rotatable_Bonds:                  11
##########                       Formal_Charge:           0.0199995
##########                     HBond_Acceptors:                   9
##########                        HBond_Donors:                   2
##########                         Heavy_Atoms:                  31
##########                          Grid_Score:          -37.761578
##########                     Grid_vdw_energy:          -36.238056
##########                      Grid_es_energy:           -1.523522
##########           Internal_energy_repulsive:           17.312618

@<TRIPOS>MOLECULE
ZINC000746432885
 52 54 1 0 0
SMALL
USER_CHARGES


@<TRIPOS>ATOM
      1 C1        -11.7395    0.7685   52.3308 C.3     1  ZINC000746432885    0.0300
      2 O2        -11.6110   -0.3718   53.1825 O.3     1  ZINC000746432885   -0.3200
      3 C3        -11.3604   -0.1348   54.4971 C.ar    1  ZINC000746432885    0.1300
      4 C4        -11.3142    1.1679   54.9717 C.ar    1  ZINC000746432885   -0.2000
      5 C5        -11.0591    1.4062   56.3083 C.ar    1  ZINC000746432885   -0.0800
      6 C6        -10.8495    0.3476   57.1727 C.ar    1  ZINC000746432885   -0.1400
      7 C7        -10.8950   -0.9517   56.7021 C.ar    1  ZINC000746432885   -0.0600
      8 C8        -10.6665   -2.1032   57.6470 C.3     1  ZINC000746432885    0.2300
      9 N9        -10.5290   -1.5935   59.0137 N.am    1  ZINC000746432885   -0.6900
     10 C10        -9.8513   -2.3076   59.9342 C.2     1  ZINC000746432885    0.5200
     11 O11        -9.3538   -3.3722   59.6306 O.2     1  ZINC000746432885   -0.5100
     12 C12        -9.7127   -1.7891   61.3276 C.2     1  ZINC000746432885    0.5100
     13 O13        -9.1099   -2.4364   62.1591 O.2     1  ZINC000746432885   -0.5100
     14 N14       -10.2569   -0.6023   61.6622 N.am    1  ZINC000746432885   -0.6100
     15 C15       -10.1252   -0.1136   62.9727 C.2     1  ZINC000746432885    0.0000
     16 C16        -8.9831   -0.0916   63.7081 C.2     1  ZINC000746432885    0.0400
     17 N17        -9.2794    0.4552   64.9089 N.pl3   1  ZINC000746432885   -0.3800
     18 C18        -8.3397    0.6715   66.0117 C.3     1  ZINC000746432885    0.2500
     19 C19        -7.0525    1.1421   65.4746 C.1     1  ZINC000746432885    0.1900
     20 N20        -6.0591    1.5053   65.0602 N.1     1  ZINC000746432885   -0.3900
     21 N21       -10.6420    0.7789   64.9130 N.2     1  ZINC000746432885   -0.2800
     22 C22       -11.1486    0.4447   63.7540 C.2     1  ZINC000746432885    0.0700
     23 C23       -11.8380   -3.0488   57.5791 C.ar    1  ZINC000746432885   -0.0500
     24 C24       -11.6690   -4.3222   57.0679 C.ar    1  ZINC000746432885   -0.1500
     25 C25       -12.7418   -5.1923   57.0047 C.ar    1  ZINC000746432885   -0.0700
     26 C26       -13.9855   -4.7908   57.4522 C.ar    1  ZINC000746432885   -0.2000
     27 C27       -14.1577   -3.5135   57.9654 C.ar    1  ZINC000746432885    0.1300
     28 O28       -15.3802   -3.1162   58.4064 O.3     1  ZINC000746432885   -0.3200
     29 C29       -15.8951   -3.7705   59.5678 C.3     1  ZINC000746432885    0.0300
     30 C30       -13.0785   -2.6443   58.0327 C.ar    1  ZINC000746432885   -0.1300
     31 C31       -11.1558   -1.1954   55.3676 C.ar    1  ZINC000746432885   -0.1300
     32 H32       -10.8146    1.3448   52.3532 H       1  ZINC000746432885    0.0600
     33 H33       -11.9379    0.4395   51.3107 H       1  ZINC000746432885    0.1000
     34 H34       -12.5640    1.3908   52.6787 H       1  ZINC000746432885    0.0600
     35 H35       -11.4772    1.9952   54.2968 H       1  ZINC000746432885    0.1300
     36 H36       -11.0231    2.4202   56.6784 H       1  ZINC000746432885    0.1300
     37 H37       -10.6495    0.5359   58.2172 H       1  ZINC000746432885    0.1200
     38 H38        -9.7563   -2.6313   57.3629 H       1  ZINC000746432885    0.1200
     39 H39       -10.9256   -0.7422   59.2561 H       1  ZINC000746432885    0.4200
     40 H40       -10.7397   -0.0857   60.9982 H       1  ZINC000746432885    0.4200
     41 H41        -8.0138   -0.4469   63.3910 H       1  ZINC000746432885    0.1900
     42 H42        -8.7447    1.4201   66.6926 H       1  ZINC000746432885    0.1300
     43 H43        -8.1885   -0.2647   66.5492 H       1  ZINC000746432885    0.1500
     44 H44       -12.1780    0.5707   63.4529 H       1  ZINC000746432885    0.2100
     45 H45       -10.6975   -4.6379   56.7172 H       1  ZINC000746432885    0.1200
     46 H46       -12.6073   -6.1865   56.6046 H       1  ZINC000746432885    0.1300
     47 H47       -14.8232   -5.4707   57.4022 H       1  ZINC000746432885    0.1300
     48 H48       -16.8749   -3.3599   59.8118 H       1  ZINC000746432885    0.1000
     49 H49       -15.9872   -4.8387   59.3722 H       1  ZINC000746432885    0.0600
     50 H50       -15.2158   -3.6118   60.4053 H       1  ZINC000746432885    0.0600
     51 H51       -13.2099   -1.6494   58.4319 H       1  ZINC000746432885    0.1400
     52 H52       -11.1911   -2.2104   55.0004 H       1  ZINC000746432885    0.1300
@<TRIPOS>BOND
     1     1     2    1
     2     1    32    1
     3     1    33    1
     4     1    34    1
     5     2     3    1
     6     3    31   ar
     7     3     4   ar
     8     4     5   ar
     9     4    35    1
    10     5     6   ar
    11     5    36    1
    12     6     7   ar
    13     6    37    1
    14     7     8    1
    15     7    31   ar
    16     8     9    1
    17     8    23    1
    18     8    38    1
    19     9    10   am
    20     9    39    1
    21    10    11    2
    22    10    12    1
    23    12    13    2
    24    12    14   am
    25    14    15    1
    26    14    40    1
    27    15    22    1
    28    15    16    2
    29    16    17    1
    30    16    41    1
    31    17    18    1
    32    17    21    1
    33    18    19    1
    34    18    42    1
    35    18    43    1
    36    19    20    3
    37    21    22    2
    38    22    44    1
    39    23    30   ar
    40    23    24   ar
    41    24    25   ar
    42    24    45    1
    43    25    26   ar
    44    25    46    1
    45    26    27   ar
    46    26    47    1
    47    27    28    1
    48    27    30   ar
    49    28    29    1
    50    29    48    1
    51    29    49    1
    52    29    50    1
    53    30    51    1
    54    31    52    1
@<TRIPOS>SUBSTRUCTURE
     1 ZINC000746432885        1 TEMP              0 ****  ****    0 ROOT


##########                                Name:    ZINC001220171460
##########                DOCK_Rotatable_Bonds:                  10
##########                         Heavy_Atoms:                  25
##########                    Molecular_Weight:             383.773
##########                DOCK_Rotatable_Bonds:                  10
##########                       Formal_Charge:           0.0199996
##########                     HBond_Acceptors:                  10
##########                        HBond_Donors:                   3
##########                         Heavy_Atoms:                  25
##########                          Grid_Score:          -37.760521
##########                     Grid_vdw_energy:          -30.273342
##########                      Grid_es_energy:           -7.487177
##########           Internal_energy_repulsive:           13.989315

@<TRIPOS>MOLECULE
ZINC001220171460
 43 44 1 0 0
SMALL
USER_CHARGES


@<TRIPOS>ATOM
      1 C1         -9.7526    0.5351   57.4517 C.3     1  ZINC001220171460    0.0200
      2 O2         -9.3614   -0.4836   58.3743 O.3     1  ZINC001220171460   -0.3100
      3 C3         -9.9104   -1.7163   58.2025 C.ar    1  ZINC001220171460    0.1000
      4 C4        -10.6173   -2.0057   57.0475 C.ar    1  ZINC001220171460   -0.1500
      5 C5        -11.1755   -3.2600   56.8733 C.ar    1  ZINC001220171460   -0.0600
      6 Cl6       -12.0608   -3.6206   55.4241 Cl      1  ZINC001220171460   -0.0400
      7 C7        -11.0290   -4.2284   57.8529 C.ar    1  ZINC001220171460    0.1000
      8 F8        -11.5752   -5.4517   57.6789 F       1  ZINC001220171460   -0.1200
      9 C9        -10.3235   -3.9447   59.0094 C.ar    1  ZINC001220171460   -0.1200
     10 C10        -9.7574   -2.6911   59.1858 C.ar    1  ZINC001220171460    0.1800
     11 N11        -9.0424   -2.4017   60.3566 N.am    1  ZINC001220171460   -0.6700
     12 C12        -9.6520   -1.7716   61.3802 C.2     1  ZINC001220171460    0.7100
     13 O13       -10.8222   -1.4543   61.2884 O.2     1  ZINC001220171460   -0.5700
     14 N14        -8.9647   -1.4934   62.5057 N.am    1  ZINC001220171460   -0.7400
     15 C15        -9.6269   -0.8071   63.6177 C.3     1  ZINC001220171460    0.1400
     16 C16        -9.2429    0.6739   63.6041 C.3     1  ZINC001220171460   -0.1400
     17 C17       -10.0839    1.4283   64.6359 C.3     1  ZINC001220171460    0.0500
     18 H18       -10.3649    0.7500   65.4416 H       1  ZINC001220171460    0.1000
     19 N19        -9.3007    2.5432   65.1852 N.3     1  ZINC001220171460   -0.6500
     20 C20        -8.6713    2.1675   66.4583 C.3     1  ZINC001220171460    0.0100
     21 C21        -7.1476    2.0302   66.4796 C.3     1  ZINC001220171460   -0.2000
     22 C22        -7.8179    3.2236   67.1632 C.3     1  ZINC001220171460   -0.1600
     23 C23       -11.3461    1.9735   63.9648 C.3     1  ZINC001220171460    0.4600
     24 F24       -12.1047    2.6811   64.9033 F       1  ZINC001220171460   -0.1800
     25 F25       -10.9854    2.8276   62.9172 F       1  ZINC001220171460   -0.1800
     26 F26       -12.1023    0.9101   63.4601 F       1  ZINC001220171460   -0.1700
     27 H27        -9.4821    0.2324   56.4401 H       1  ZINC001220171460    0.0600
     28 H28       -10.8308    0.6839   57.5103 H       1  ZINC001220171460    0.0600
     29 H29        -9.2434    1.4660   57.7008 H       1  ZINC001220171460    0.1100
     30 H30       -10.7333   -1.2523   56.2825 H       1  ZINC001220171460    0.1500
     31 H31       -10.2103   -4.7006   59.7724 H       1  ZINC001220171460    0.1800
     32 H32        -8.1088   -2.6549   60.4298 H       1  ZINC001220171460    0.4200
     33 H33        -8.0315   -1.7478   62.5794 H       1  ZINC001220171460    0.4000
     34 H34       -10.7075   -0.9032   63.5122 H       1  ZINC001220171460    0.0800
     35 H35        -9.3126   -1.2553   64.5602 H       1  ZINC001220171460    0.0700
     36 H36        -8.1863    0.7776   63.8509 H       1  ZINC001220171460    0.1000
     37 H37        -9.4268    1.0879   62.6127 H       1  ZINC001220171460    0.1000
     38 H38        -8.6113    2.8624   64.5214 H       1  ZINC001220171460    0.3600
     39 H39        -9.2471    1.4858   67.0844 H       1  ZINC001220171460    0.1200
     40 H40        -6.7208    1.2581   67.1197 H       1  ZINC001220171460    0.1000
     41 H41        -6.6123    2.2187   65.5490 H       1  ZINC001220171460    0.1000
     42 H42        -7.7235    4.1973   66.6824 H       1  ZINC001220171460    0.1000
     43 H43        -7.8320    3.2367   68.2530 H       1  ZINC001220171460    0.1000
@<TRIPOS>BOND
     1     1     2    1
     2     1    27    1
     3     1    28    1
     4     1    29    1
     5     2     3    1
     6     3    10   ar
     7     3     4   ar
     8     4     5   ar
     9     4    30    1
    10     5     6    1
    11     5     7   ar
    12     7     8    1
    13     7     9   ar
    14     9    10   ar
    15     9    31    1
    16    10    11    1
    17    11    12   am
    18    11    32    1
    19    12    13    2
    20    12    14   am
    21    14    15    1
    22    14    33    1
    23    15    16    1
    24    15    34    1
    25    15    35    1
    26    16    17    1
    27    16    36    1
    28    16    37    1
    29    17    18    1
    30    17    19    1
    31    17    23    1
    32    19    20    1
    33    19    38    1
    34    20    22    1
    35    20    21    1
    36    20    39    1
    37    21    22    1
    38    21    40    1
    39    21    41    1
    40    22    42    1
    41    22    43    1
    42    23    24    1
    43    23    25    1
    44    23    26    1
@<TRIPOS>SUBSTRUCTURE
     1 ZINC001220171460        1 TEMP              0 ****  ****    0 ROOT


##########                                Name:    ZINC000284209281
##########                DOCK_Rotatable_Bonds:                   8
##########                         Heavy_Atoms:                  26
##########                    Molecular_Weight:             353.424
##########                DOCK_Rotatable_Bonds:                   8
##########                       Formal_Charge:          0.00999954
##########                     HBond_Acceptors:                   7
##########                        HBond_Donors:                   1
##########                         Heavy_Atoms:                  26
##########                          Grid_Score:          -37.747669
##########                     Grid_vdw_energy:          -35.829475
##########                      Grid_es_energy:           -1.918192
##########           Internal_energy_repulsive:           12.848586

@<TRIPOS>MOLECULE
ZINC000284209281
 49 51 1 0 0
SMALL
USER_CHARGES


@<TRIPOS>ATOM
      1 O1        -13.7913   -5.4733   57.5078 O.2     1  <0>        -0.5100
      2 C2        -13.0359   -4.5628   57.2377 C.2     1  <0>         0.5100
      3 N3        -13.3969   -3.6345   56.3297 N.am    1  <0>        -0.7000
      4 C4        -14.6987   -3.7281   55.6644 C.3     1  <0>         0.1200
      5 C5        -14.7360   -2.7621   54.4785 C.3     1  <0>        -0.1000
      6 C6        -13.5032   -2.9559   53.6338 C.ar    1  <0>        -0.0400
      7 C7        -12.9861   -4.2233   53.4132 C.ar    1  <0>        -0.1700
      8 C8        -11.8538   -4.3623   52.6331 C.ar    1  <0>         0.1000
      9 N9        -11.2669   -3.3076   52.1022 N.ar    1  <0>        -0.4900
     10 C10       -11.7308   -2.0876   52.2906 C.ar    1  <0>         0.1000
     11 C11       -12.8624   -1.8717   53.0540 C.ar    1  <0>        -0.1700
     12 C12       -11.7078   -4.4674   57.9164 C.2     1  <0>         0.5100
     13 O13       -10.7765   -5.1397   57.5248 O.2     1  <0>        -0.5200
     14 N14       -11.5445   -3.6346   58.9635 N.am    1  <0>        -0.5800
     15 C15       -10.2445   -3.5210   59.6420 C.3     1  <0>         0.0800
     16 C16        -9.8703   -2.0377   59.7319 C.3     1  <0>         0.0400
     17 N17       -10.9688   -1.2964   60.3658 N.3     1  <0>        -0.5300
     18 C18       -10.5821    0.0965   60.6269 C.3     1  <0>         0.1000
     19 C19       -10.2440    0.2588   62.0865 C.ar    1  <0>         0.1300
     20 C20       -10.4021    1.4913   62.6911 C.ar    1  <0>        -0.1500
     21 C21       -10.0886    1.6299   64.0348 C.ar    1  <0>        -0.0700
     22 C22        -9.6261    0.5186   64.7224 C.ar    1  <0>        -0.1700
     23 C23        -9.4935   -0.6821   64.0507 C.ar    1  <0>         0.1000
     24 N24        -9.8060   -0.7783   62.7733 N.ar    1  <0>        -0.4800
     25 C25       -12.1922   -1.3601   59.5551 C.3     1  <0>         0.0400
     26 C26       -12.6599   -2.8111   59.4542 C.3     1  <0>         0.1100
     27 H27       -12.7947   -2.9045   56.1168 H       1  <0>         0.4100
     28 H28       -14.8524   -4.7468   55.3083 H       1  <0>         0.0800
     29 H29       -15.4872   -3.4673   56.3705 H       1  <0>         0.0800
     30 H30       -15.6234   -2.9595   53.8769 H       1  <0>         0.0900
     31 H31       -14.7671   -1.7364   54.8462 H       1  <0>         0.0900
     32 H32       -13.4619   -5.0911   53.8458 H       1  <0>         0.1400
     33 H33       -11.4448   -5.3461   52.4564 H       1  <0>         0.1600
     34 H34       -11.2227   -1.2479   51.8398 H       1  <0>         0.1600
     35 H35       -13.2377   -0.8703   53.2044 H       1  <0>         0.1400
     36 H36       -10.3169   -3.9418   60.6449 H       1  <0>         0.0800
     37 H37        -9.4855   -4.0562   59.0713 H       1  <0>         0.1400
     38 H38        -8.9647   -1.9265   60.3281 H       1  <0>         0.0900
     39 H39        -9.6971   -1.6449   58.7299 H       1  <0>         0.0400
     40 H40        -9.7121    0.3516   60.0218 H       1  <0>         0.0900
     41 H41       -11.4098    0.7576   60.3699 H       1  <0>         0.0600
     42 H42       -10.7648    2.3360   62.1242 H       1  <0>         0.1400
     43 H43       -10.2018    2.5811   64.5336 H       1  <0>         0.1400
     44 H44        -9.3721    0.5902   65.7697 H       1  <0>         0.1400
     45 H45        -9.1335   -1.5524   64.5792 H       1  <0>         0.1600
     46 H46       -12.9704   -0.7574   60.0233 H       1  <0>         0.1000
     47 H47       -11.9867   -0.9767   58.5556 H       1  <0>         0.0400
     48 H48       -13.4989   -2.8779   58.7616 H       1  <0>         0.1000
     49 H49       -12.9646   -3.1668   60.4383 H       1  <0>         0.0800
@<TRIPOS>BOND
     1     1     2    2
     2     2     3   am
     3     2    12    1
     4     3     4    1
     5     3    27    1
     6     4     5    1
     7     4    28    1
     8     4    29    1
     9     5     6    1
    10     5    30    1
    11     5    31    1
    12     6    11   ar
    13     6     7   ar
    14     7     8   ar
    15     7    32    1
    16     8     9   ar
    17     8    33    1
    18     9    10   ar
    19    10    11   ar
    20    10    34    1
    21    11    35    1
    22    12    13    2
    23    12    14   am
    24    14    26    1
    25    14    15    1
    26    15    16    1
    27    15    36    1
    28    15    37    1
    29    16    17    1
    30    16    38    1
    31    16    39    1
    32    17    18    1
    33    17    25    1
    34    18    19    1
    35    18    40    1
    36    18    41    1
    37    19    24   ar
    38    19    20   ar
    39    20    21   ar
    40    20    42    1
    41    21    22   ar
    42    21    43    1
    43    22    23   ar
    44    22    44    1
    45    23    24   ar
    46    23    45    1
    47    25    26    1
    48    25    46    1
    49    25    47    1
    50    26    48    1
    51    26    49    1
@<TRIPOS>SUBSTRUCTURE
     1 <0>         1 TEMP              0 ****  ****    0 ROOT


##########                                Name:    ZINC000269287897
##########                DOCK_Rotatable_Bonds:                   8
##########                         Heavy_Atoms:                  23
##########                    Molecular_Weight:             385.301
##########                DOCK_Rotatable_Bonds:                   8
##########                       Formal_Charge:           0.0300002
##########                     HBond_Acceptors:                   5
##########                        HBond_Donors:                   1
##########                         Heavy_Atoms:                  23
##########                          Grid_Score:          -37.743168
##########                     Grid_vdw_energy:          -36.597198
##########                      Grid_es_energy:           -1.145970
##########           Internal_energy_repulsive:            8.809300

@<TRIPOS>MOLECULE
ZINC000269287897
 48 49 1 0 0
SMALL
USER_CHARGES


@<TRIPOS>ATOM
      1 C1         -7.4937   -0.8391   51.2165 C.3     1  ZINC000269287897    0.0300
      2 O2         -8.7417   -1.5245   51.3389 O.3     1  ZINC000269287897   -0.3800
      3 C3         -9.6765   -0.8793   52.2059 C.3     1  ZINC000269287897    0.0600
      4 C4        -10.9671   -1.6989   52.2648 C.3     1  ZINC000269287897    0.0600
      5 O5        -10.6701   -3.0241   52.7093 O.3     1  ZINC000269287897   -0.3800
      6 C6        -11.8225   -3.8510   52.8831 C.3     1  ZINC000269287897    0.0700
      7 C7        -12.5451   -3.4544   54.1720 C.3     1  ZINC000269287897   -0.1000
      8 H8        -13.1359   -2.5505   54.0238 H       1  ZINC000269287897    0.1000
      9 C9        -13.4293   -4.6175   54.6943 C.3     1  ZINC000269287897   -0.1200
     10 C10       -13.4978   -4.3450   56.2118 C.3     1  ZINC000269287897    0.1000
     11 N11       -12.3368   -3.5123   56.5585 N.am    1  ZINC000269287897   -0.6300
     12 C12       -12.0466   -3.0420   57.7878 C.2     1  ZINC000269287897    0.7300
     13 O13       -12.7757   -3.3012   58.7257 O.2     1  ZINC000269287897   -0.5600
     14 N14       -10.9482   -2.2844   57.9774 N.am    1  ZINC000269287897   -0.6900
     15 C15       -10.6467   -1.7960   59.2542 C.ar    1  ZINC000269287897    0.1800
     16 C16       -11.0959   -0.5414   59.6430 C.ar    1  ZINC000269287897   -0.0600
     17 C17       -11.9091    0.2970   58.6907 C.3     1  ZINC000269287897   -0.1000
     18 C18       -10.7972   -0.0622   60.9039 C.ar    1  ZINC000269287897   -0.0900
     19 C19       -10.0517   -0.8306   61.7787 C.ar    1  ZINC000269287897   -0.0800
     20 C20        -9.7280   -0.3044   63.1532 C.3     1  ZINC000269287897   -0.1100
     21 C21        -9.6027   -2.0813   61.3952 C.ar    1  ZINC000269287897   -0.0900
     22 C22        -9.9020   -2.5685   60.1374 C.ar    1  ZINC000269287897   -0.1000
     23 Br23       -9.2884   -4.2788   59.6138 Br      1  ZINC000269287897   -0.0500
     24 C24       -11.5419   -3.2769   55.3389 C.3     1  ZINC000269287897    0.1400
     25 H25        -7.6658    0.1604   50.8172 H       1  ZINC000269287897    0.0400
     26 H26        -7.0234   -0.7628   52.1968 H       1  ZINC000269287897    0.0400
     27 H27        -6.8401   -1.3922   50.5420 H       1  ZINC000269287897    0.0900
     28 H28        -9.2502   -0.8007   53.2059 H       1  ZINC000269287897    0.0600
     29 H29        -9.8966    0.1181   51.8253 H       1  ZINC000269287897    0.0600
     30 H30       -11.6638   -1.2302   52.9597 H       1  ZINC000269287897    0.0700
     31 H31       -11.4166   -1.7407   51.2726 H       1  ZINC000269287897    0.0600
     32 H32       -12.4945   -3.7205   52.0348 H       1  ZINC000269287897    0.0600
     33 H33       -11.5146   -4.8947   52.9456 H       1  ZINC000269287897    0.0500
     34 H34       -14.4237   -4.5755   54.2498 H       1  ZINC000269287897    0.0900
     35 H35       -12.9574   -5.5798   54.4961 H       1  ZINC000269287897    0.0800
     36 H36       -14.4193   -3.8148   56.4521 H       1  ZINC000269287897    0.0700
     37 H37       -13.4556   -5.2864   56.7597 H       1  ZINC000269287897    0.0700
     38 H38       -10.3665   -2.0776   57.2292 H       1  ZINC000269287897    0.4100
     39 H39       -12.9686    0.1831   58.9201 H       1  ZINC000269287897    0.0900
     40 H40       -11.6252    1.3441   58.7952 H       1  ZINC000269287897    0.0600
     41 H41       -11.7217   -0.0300   57.6679 H       1  ZINC000269287897    0.0600
     42 H42       -11.1463    0.9139   61.2066 H       1  ZINC000269287897    0.1300
     43 H43       -10.5129   -0.5997   63.8495 H       1  ZINC000269287897    0.0700
     44 H44        -8.7747   -0.7162   63.4847 H       1  ZINC000269287897    0.0700
     45 H45        -9.6621    0.7830   63.1197 H       1  ZINC000269287897    0.0700
     46 H46        -9.0205   -2.6791   62.0808 H       1  ZINC000269287897    0.1400
     47 H47       -10.7385   -4.0097   55.2624 H       1  ZINC000269287897    0.0700
     48 H48       -11.1351   -2.2657   55.3405 H       1  ZINC000269287897    0.0900
@<TRIPOS>BOND
     1     1     2    1
     2     1    25    1
     3     1    26    1
     4     1    27    1
     5     2     3    1
     6     3     4    1
     7     3    28    1
     8     3    29    1
     9     4     5    1
    10     4    30    1
    11     4    31    1
    12     5     6    1
    13     6     7    1
    14     6    32    1
    15     6    33    1
    16     7     8    1
    17     7    24    1
    18     7     9    1
    19     9    10    1
    20     9    34    1
    21     9    35    1
    22    10    11    1
    23    10    36    1
    24    10    37    1
    25    11    12   am
    26    11    24    1
    27    12    13    2
    28    12    14   am
    29    14    15    1
    30    14    38    1
    31    15    22   ar
    32    15    16   ar
    33    16    17    1
    34    16    18   ar
    35    17    39    1
    36    17    40    1
    37    17    41    1
    38    18    19   ar
    39    18    42    1
    40    19    20    1
    41    19    21   ar
    42    20    43    1
    43    20    44    1
    44    20    45    1
    45    21    22   ar
    46    21    46    1
    47    22    23    1
    48    24    47    1
    49    24    48    1
@<TRIPOS>SUBSTRUCTURE
     1 ZINC000269287897        1 TEMP              0 ****  ****    0 ROOT


##########                                Name:    ZINC000762187039
##########                DOCK_Rotatable_Bonds:                   9
##########                         Heavy_Atoms:                  25
##########                    Molecular_Weight:             354.473
##########                DOCK_Rotatable_Bonds:                   9
##########                       Formal_Charge:        -1.78814e-07
##########                     HBond_Acceptors:                   5
##########                        HBond_Donors:                   1
##########                         Heavy_Atoms:                  25
##########                          Grid_Score:          -37.717415
##########                     Grid_vdw_energy:          -37.839886
##########                      Grid_es_energy:            0.122472
##########           Internal_energy_repulsive:            8.007844

@<TRIPOS>MOLECULE
ZINC000762187039
 47 49 1 0 0
SMALL
USER_CHARGES


@<TRIPOS>ATOM
      1 C1        -10.8827   -0.9230   61.9878 C.3     1  ZINC000762187039   -0.0800
      2 C2        -10.7003   -1.8557   60.8182 C.2     1  ZINC000762187039    0.0500
      3 N3        -11.3691   -1.7978   59.7163 N.2     1  ZINC000762187039   -0.4700
      4 C4        -11.0826   -2.6923   58.7919 C.2     1  ZINC000762187039    0.0700
      5 C5        -11.7843   -2.7408   57.4592 C.3     1  ZINC000762187039   -0.0300
      6 C6        -11.8723   -4.1916   56.9815 C.3     1  ZINC000762187039   -0.1300
      7 C7        -12.5919   -4.2422   55.6583 C.2     1  ZINC000762187039    0.5200
      8 O8        -13.8011   -4.3298   55.6287 O.2     1  ZINC000762187039   -0.5400
      9 N9        -11.8915   -4.1900   54.5080 N.am    1  ZINC000762187039   -0.7300
     10 C10       -12.5909   -4.2408   53.2218 C.3     1  ZINC000762187039    0.1200
     11 C11       -12.8964   -2.8175   52.7508 C.3     1  ZINC000762187039   -0.1300
     12 C12       -11.6468   -2.2145   52.1057 C.3     1  ZINC000762187039    0.0600
     13 O13       -10.6672   -1.9574   53.1138 O.3     1  ZINC000762187039   -0.3100
     14 C14        -9.7862   -0.9507   52.8753 C.ar    1  ZINC000762187039    0.1300
     15 C15        -9.8458    0.2151   53.6446 C.ar    1  ZINC000762187039   -0.1900
     16 C16        -8.9777    1.2399   53.4298 C.ar    1  ZINC000762187039   -0.0600
     17 C17        -8.0050    1.1295   52.4211 C.ar    1  ZINC000762187039   -0.0800
     18 C18        -7.0922    2.1686   52.1725 C.ar    1  ZINC000762187039   -0.0900
     19 C19        -6.1630    2.0279   51.1881 C.ar    1  ZINC000762187039   -0.1300
     20 C20        -6.1012    0.8665   50.4200 C.ar    1  ZINC000762187039   -0.1000
     21 C21        -6.9685   -0.1605   50.6318 C.ar    1  ZINC000762187039   -0.1200
     22 C22        -7.9423   -0.0519   51.6400 C.ar    1  ZINC000762187039   -0.0100
     23 C23        -8.8502   -1.0933   51.8905 C.ar    1  ZINC000762187039   -0.1500
     24 C24       -10.1184   -3.5526   59.1330 C.2     1  ZINC000762187039   -0.2600
     25 S25        -9.5722   -3.1389   60.7564 S.3     1  ZINC000762187039    0.1200
     26 H26       -10.1868   -1.1952   62.7815 H       1  ZINC000762187039    0.0800
     27 H27       -10.6882    0.1012   61.6697 H       1  ZINC000762187039    0.0900
     28 H28       -11.9048   -1.0006   62.3584 H       1  ZINC000762187039    0.0900
     29 H29       -12.7890   -2.3307   57.5623 H       1  ZINC000762187039    0.0900
     30 H30       -11.2245   -2.1523   56.7322 H       1  ZINC000762187039    0.0900
     31 H31       -10.8673   -4.5971   56.8643 H       1  ZINC000762187039    0.0900
     32 H32       -12.4195   -4.7832   57.7155 H       1  ZINC000762187039    0.1000
     33 H33       -10.9245   -4.1187   54.5318 H       1  ZINC000762187039    0.4000
     34 H34       -11.9611   -4.7398   52.4853 H       1  ZINC000762187039    0.0700
     35 H35       -13.5233   -4.7934   53.3366 H       1  ZINC000762187039    0.0700
     36 H36       -13.7060   -2.8421   52.0213 H       1  ZINC000762187039    0.0800
     37 H37       -13.1945   -2.2084   53.6042 H       1  ZINC000762187039    0.0800
     38 H38       -11.2414   -2.9145   51.3752 H       1  ZINC000762187039    0.0700
     39 H39       -11.9094   -1.2812   51.6077 H       1  ZINC000762187039    0.0700
     40 H40       -10.5920    0.3033   54.4205 H       1  ZINC000762187039    0.1300
     41 H41        -9.0358    2.1349   54.0313 H       1  ZINC000762187039    0.1300
     42 H42        -7.1280    3.0746   52.7594 H       1  ZINC000762187039    0.1300
     43 H43        -5.4630    2.8284   50.9991 H       1  ZINC000762187039    0.1200
     44 H44        -5.3542    0.7807   49.6446 H       1  ZINC000762187039    0.1200
     45 H45        -6.9089   -1.0545   50.0288 H       1  ZINC000762187039    0.1300
     46 H46        -8.8112   -2.0004   51.3057 H       1  ZINC000762187039    0.1300
     47 H47        -9.7385   -4.3567   58.5204 H       1  ZINC000762187039    0.1800
@<TRIPOS>BOND
     1     1     2    1
     2     1    26    1
     3     1    27    1
     4     1    28    1
     5     2    25    1
     6     2     3    2
     7     3     4    1
     8     4     5    1
     9     4    24    2
    10     5     6    1
    11     5    29    1
    12     5    30    1
    13     6     7    1
    14     6    31    1
    15     6    32    1
    16     7     8    2
    17     7     9   am
    18     9    10    1
    19     9    33    1
    20    10    11    1
    21    10    34    1
    22    10    35    1
    23    11    12    1
    24    11    36    1
    25    11    37    1
    26    12    13    1
    27    12    38    1
    28    12    39    1
    29    13    14    1
    30    14    23   ar
    31    14    15   ar
    32    15    16   ar
    33    15    40    1
    34    16    17   ar
    35    16    41    1
    36    17    22   ar
    37    17    18   ar
    38    18    19   ar
    39    18    42    1
    40    19    20   ar
    41    19    43    1
    42    20    21   ar
    43    20    44    1
    44    21    22   ar
    45    21    45    1
    46    22    23   ar
    47    23    46    1
    48    24    25    1
    49    24    47    1
@<TRIPOS>SUBSTRUCTURE
     1 ZINC000762187039        1 TEMP              0 ****  ****    0 ROOT


##########                                Name:    ZINC000859608860
##########                DOCK_Rotatable_Bonds:                   8
##########                         Heavy_Atoms:                  24
##########                    Molecular_Weight:             394.268
##########                DOCK_Rotatable_Bonds:                   8
##########                       Formal_Charge:          -0.0200003
##########                     HBond_Acceptors:                   6
##########                        HBond_Donors:                   1
##########                         Heavy_Atoms:                  24
##########                          Grid_Score:          -37.710823
##########                     Grid_vdw_energy:          -36.756435
##########                      Grid_es_energy:           -0.954389
##########           Internal_energy_repulsive:           10.659190

@<TRIPOS>MOLECULE
ZINC000859608860
 44 45 1 0 0
SMALL
USER_CHARGES


@<TRIPOS>ATOM
      1 C1        -14.2769    0.0352   51.9886 C.3     1  ZINC000859608860   -0.1400
      2 C2        -14.1001   -1.2729   51.2149 C.3     1  ZINC000859608860   -0.0800
      3 C3        -15.2234   -2.2422   51.5885 C.3     1  ZINC000859608860   -0.1400
      4 C4        -14.1512   -0.9877   49.7126 C.3     1  ZINC000859608860   -0.1400
      5 C5        -12.7490   -1.8969   51.5700 C.3     1  ZINC000859608860    0.1300
      6 N6        -12.7406   -2.2698   52.9867 N.am    1  ZINC000859608860   -0.7300
      7 C7        -11.9715   -3.2925   53.4097 C.2     1  ZINC000859608860    0.5100
      8 O8        -11.2877   -3.9052   52.6173 O.2     1  ZINC000859608860   -0.5100
      9 C9        -11.9614   -3.6750   54.8673 C.3     1  ZINC000859608860    0.0500
     10 O10       -12.9543   -4.7079   55.1037 O.3     1  ZINC000859608860   -0.3100
     11 C11       -13.0285   -5.2113   56.3519 C.2     1  ZINC000859608860    0.5600
     12 O12       -13.8849   -6.0286   56.6275 O.2     1  ZINC000859608860   -0.5100
     13 C13       -12.0728   -4.7715   57.3807 C.2     1  ZINC000859608860   -0.0400
     14 C14       -12.2627   -3.7605   58.2783 C.2     1  ZINC000859608860    0.0500
     15 N15       -11.1361   -3.6939   59.0386 N.pl3   1  ZINC000859608860   -0.4100
     16 C16       -10.8968   -2.7950   60.0880 C.ar    1  ZINC000859608860    0.1400
     17 C17       -11.8920   -1.9142   60.4896 C.ar    1  ZINC000859608860   -0.1200
     18 C18       -11.6540   -1.0302   61.5238 C.ar    1  ZINC000859608860   -0.0600
     19 C19       -10.4250   -1.0218   62.1593 C.ar    1  ZINC000859608860   -0.1000
     20 Br20      -10.1026    0.1900   63.5747 Br      1  ZINC000859608860   -0.0300
     21 C21        -9.4318   -1.8988   61.7612 C.ar    1  ZINC000859608860   -0.0600
     22 C22        -9.6663   -2.7881   60.7308 C.ar    1  ZINC000859608860   -0.1200
     23 C23       -10.2835   -4.6582   58.5958 C.2     1  ZINC000859608860    0.2000
     24 N24       -10.8444   -5.3016   57.6133 N.2     1  ZINC000859608860   -0.4300
     25 H25       -14.2406   -0.1680   53.0589 H       1  ZINC000859608860    0.0500
     26 H26       -13.4767    0.7257   51.7225 H       1  ZINC000859608860    0.0600
     27 H27       -15.2395    0.4797   51.7357 H       1  ZINC000859608860    0.0600
     28 H28       -16.1860   -1.7977   51.3355 H       1  ZINC000859608860    0.0600
     29 H29       -15.0976   -3.1741   51.0372 H       1  ZINC000859608860    0.0600
     30 H30       -15.1871   -2.4454   52.6588 H       1  ZINC000859608860    0.0500
     31 H31       -13.3509   -0.2972   49.4464 H       1  ZINC000859608860    0.0600
     32 H32       -14.0253   -1.9196   49.1614 H       1  ZINC000859608860    0.0600
     33 H33       -15.1138   -0.5432   49.4597 H       1  ZINC000859608860    0.0600
     34 H34       -12.5874   -2.7853   50.9594 H       1  ZINC000859608860    0.0700
     35 H35       -11.9545   -1.1755   51.3794 H       1  ZINC000859608860    0.0700
     36 H36       -13.2884   -1.7806   53.6203 H       1  ZINC000859608860    0.4000
     37 H37       -10.9746   -4.0509   55.1376 H       1  ZINC000859608860    0.1000
     38 H38       -12.1957   -2.8003   55.4741 H       1  ZINC000859608860    0.1000
     39 H39       -13.1381   -3.1342   58.3676 H       1  ZINC000859608860    0.2000
     40 H40       -12.8513   -1.9201   59.9936 H       1  ZINC000859608860    0.1400
     41 H41       -12.4278   -0.3446   61.8362 H       1  ZINC000859608860    0.1500
     42 H42        -8.4732   -1.8904   62.2588 H       1  ZINC000859608860    0.1500
     43 H43        -8.8907   -3.4725   60.4204 H       1  ZINC000859608860    0.1500
     44 H44        -9.3015   -4.8596   58.9976 H       1  ZINC000859608860    0.2200
@<TRIPOS>BOND
     1     1     2    1
     2     1    25    1
     3     1    26    1
     4     1    27    1
     5     2     3    1
     6     2     4    1
     7     2     5    1
     8     3    28    1
     9     3    29    1
    10     3    30    1
    11     4    31    1
    12     4    32    1
    13     4    33    1
    14     5     6    1
    15     5    34    1
    16     5    35    1
    17     6     7   am
    18     6    36    1
    19     7     8    2
    20     7     9    1
    21     9    10    1
    22     9    37    1
    23     9    38    1
    24    10    11    1
    25    11    12    2
    26    11    13    1
    27    13    24    1
    28    13    14    2
    29    14    15    1
    30    14    39    1
    31    15    16    1
    32    15    23    1
    33    16    22   ar
    34    16    17   ar
    35    17    18   ar
    36    17    40    1
    37    18    19   ar
    38    18    41    1
    39    19    20    1
    40    19    21   ar
    41    21    22   ar
    42    21    42    1
    43    22    43    1
    44    23    24    2
    45    23    44    1
@<TRIPOS>SUBSTRUCTURE
     1 ZINC000859608860        1 TEMP              0 ****  ****    0 ROOT


##########                                Name:    ZINC000914736341
##########                DOCK_Rotatable_Bonds:                   7
##########                         Heavy_Atoms:                  27
##########                    Molecular_Weight:             384.905
##########                DOCK_Rotatable_Bonds:                   7
##########                       Formal_Charge:                0.02
##########                     HBond_Acceptors:                   5
##########                        HBond_Donors:                   1
##########                         Heavy_Atoms:                  27
##########                          Grid_Score:          -37.670681
##########                     Grid_vdw_energy:          -37.757954
##########                      Grid_es_energy:            0.087272
##########           Internal_energy_repulsive:           28.331465

@<TRIPOS>MOLECULE
ZINC000914736341
 52 54 1 0 0
SMALL
USER_CHARGES


@<TRIPOS>ATOM
      1 C1        -10.6778    2.3496   52.6980 C.3     1  ZINC000914736341   -0.1400
      2 C2        -10.1928    0.9195   52.9446 C.3     1  ZINC000914736341   -0.0300
      3 C3         -9.9563    0.7122   54.4418 C.3     1  ZINC000914736341   -0.1400
      4 C4        -11.2518   -0.0697   52.4537 C.3     1  ZINC000914736341    0.1300
      5 N5        -11.3356   -1.1975   53.3849 N.am    1  ZINC000914736341   -0.7200
      6 C6        -11.7327   -2.4075   52.9438 C.2     1  ZINC000914736341    0.5300
      7 O7        -12.0220   -2.5625   51.7763 O.2     1  ZINC000914736341   -0.5300
      8 C8        -11.8172   -3.5681   53.9015 C.3     1  ZINC000914736341   -0.1200
      9 H9        -10.9227   -4.1879   53.8400 H       1  ZINC000914736341    0.1200
     10 C10       -13.0904   -4.4069   53.6434 C.3     1  ZINC000914736341   -0.1400
     11 C11       -13.5450   -4.8255   55.0242 C.2     1  ZINC000914736341    0.5200
     12 O12       -14.3362   -5.7153   55.2549 O.2     1  ZINC000914736341   -0.5200
     13 N13       -12.9442   -4.0681   55.9581 N.am    1  ZINC000914736341   -0.6100
     14 C14       -13.1534   -4.2142   57.4007 C.3     1  ZINC000914736341    0.1600
     15 C15       -11.9120   -3.7773   58.1351 C.ar    1  ZINC000914736341   -0.1000
     16 C16       -10.8160   -4.6166   58.1998 C.ar    1  ZINC000914736341   -0.0800
     17 C17        -9.6770   -4.2160   58.8735 C.ar    1  ZINC000914736341   -0.1100
     18 C18        -9.6340   -2.9763   59.4832 C.ar    1  ZINC000914736341   -0.1000
     19 C19       -10.7297   -2.1360   59.4192 C.ar    1  ZINC000914736341   -0.1100
     20 C20       -11.8673   -2.5337   58.7400 C.ar    1  ZINC000914736341   -0.0300
     21 Cl21      -13.2438   -1.4788   58.6593 Cl      1  ZINC000914736341   -0.0600
     22 C22       -12.0507   -3.0762   55.3471 C.3     1  ZINC000914736341    0.1000
     23 C23        -8.9053    0.6896   52.1960 C.ar    1  ZINC000914736341   -0.0700
     24 C24        -8.0689    1.7540   51.9163 C.ar    1  ZINC000914736341   -0.1200
     25 C25        -6.8878    1.5431   51.2296 C.ar    1  ZINC000914736341   -0.1200
     26 C26        -6.5431    0.2676   50.8230 C.ar    1  ZINC000914736341   -0.1200
     27 C27        -7.3791   -0.7969   51.1035 C.ar    1  ZINC000914736341   -0.1200
     28 C28        -8.5580   -0.5866   51.7939 C.ar    1  ZINC000914736341   -0.1100
     29 H29        -9.9235    3.0544   53.0478 H       1  ZINC000914736341    0.0600
     30 H30       -10.8463    2.4973   51.6314 H       1  ZINC000914736341    0.0600
     31 H31       -11.6091    2.5158   53.2394 H       1  ZINC000914736341    0.0600
     32 H32       -10.8877    0.8784   54.9832 H       1  ZINC000914736341    0.0600
     33 H33        -9.6110   -0.3067   54.6175 H       1  ZINC000914736341    0.0600
     34 H34        -9.2020    1.4170   54.7916 H       1  ZINC000914736341    0.0600
     35 H35       -12.2190    0.4301   52.4002 H       1  ZINC000914736341    0.0700
     36 H36       -10.9766   -0.4352   51.4643 H       1  ZINC000914736341    0.0700
     37 H37       -11.1054   -1.0733   54.3190 H       1  ZINC000914736341    0.4000
     38 H38       -13.8548   -3.8004   53.1576 H       1  ZINC000914736341    0.1100
     39 H39       -12.8544   -5.2819   53.0378 H       1  ZINC000914736341    0.1100
     40 H40       -13.9955   -3.5950   57.7103 H       1  ZINC000914736341    0.1000
     41 H41       -13.3648   -5.2578   57.6334 H       1  ZINC000914736341    0.1000
     42 H42       -10.8492   -5.5856   57.7242 H       1  ZINC000914736341    0.1400
     43 H43        -8.8207   -4.8722   58.9237 H       1  ZINC000914736341    0.1300
     44 H44        -8.7444   -2.6642   60.0099 H       1  ZINC000914736341    0.1300
     45 H45       -10.6961   -1.1673   59.8956 H       1  ZINC000914736341    0.1400
     46 H46       -11.1062   -3.0345   55.8896 H       1  ZINC000914736341    0.1000
     47 H47       -12.5255   -2.0951   55.3390 H       1  ZINC000914736341    0.0900
     48 H48        -8.3383    2.7504   52.2340 H       1  ZINC000914736341    0.1300
     49 H49        -6.2347    2.3748   51.0105 H       1  ZINC000914736341    0.1200
     50 H50        -5.6206    0.1030   50.2858 H       1  ZINC000914736341    0.1200
     51 H51        -7.1098   -1.7932   50.7855 H       1  ZINC000914736341    0.1200
     52 H52        -9.2112   -1.4184   52.0131 H       1  ZINC000914736341    0.1200
@<TRIPOS>BOND
     1     1     2    1
     2     1    29    1
     3     1    30    1
     4     1    31    1
     5     2     3    1
     6     2     4    1
     7     2    23    1
     8     3    32    1
     9     3    33    1
    10     3    34    1
    11     4     5    1
    12     4    35    1
    13     4    36    1
    14     5     6   am
    15     5    37    1
    16     6     7    2
    17     6     8    1
    18     8     9    1
    19     8    22    1
    20     8    10    1
    21    10    11    1
    22    10    38    1
    23    10    39    1
    24    11    12    2
    25    11    13   am
    26    13    14    1
    27    13    22    1
    28    14    15    1
    29    14    40    1
    30    14    41    1
    31    15    20   ar
    32    15    16   ar
    33    16    17   ar
    34    16    42    1
    35    17    18   ar
    36    17    43    1
    37    18    19   ar
    38    18    44    1
    39    19    20   ar
    40    19    45    1
    41    20    21    1
    42    22    46    1
    43    22    47    1
    44    23    28   ar
    45    23    24   ar
    46    24    25   ar
    47    24    48    1
    48    25    26   ar
    49    25    49    1
    50    26    27   ar
    51    26    50    1
    52    27    28   ar
    53    27    51    1
    54    28    52    1
@<TRIPOS>SUBSTRUCTURE
     1 ZINC000914736341        1 TEMP              0 ****  ****    0 ROOT


##########                                Name:    ZINC000508571532
##########                DOCK_Rotatable_Bonds:                   9
##########                         Heavy_Atoms:                  30
##########                    Molecular_Weight:             422.407
##########                DOCK_Rotatable_Bonds:                   9
##########                       Formal_Charge:           0.0100001
##########                     HBond_Acceptors:                  10
##########                        HBond_Donors:                   0
##########                         Heavy_Atoms:                  30
##########                          Grid_Score:          -37.668530
##########                     Grid_vdw_energy:          -36.683525
##########                      Grid_es_energy:           -0.985005
##########           Internal_energy_repulsive:           19.363293

@<TRIPOS>MOLECULE
ZINC000508571532
 51 53 1 0 0
SMALL
USER_CHARGES


@<TRIPOS>ATOM
      1 C1         -1.7826    4.0696   50.3891 C.3     1  ZINC000508571532    0.0300
      2 O2         -2.9457    4.3759   51.1606 O.3     1  ZINC000508571532   -0.3200
      3 C3         -3.9083    3.4181   51.2330 C.ar    1  ZINC000508571532    0.0900
      4 C4         -5.0662    3.6524   51.9596 C.ar    1  ZINC000508571532   -0.1700
      5 C5         -6.0442    2.6796   52.0333 C.ar    1  ZINC000508571532   -0.1100
      6 C6         -5.8683    1.4688   51.3801 C.ar    1  ZINC000508571532    0.0900
      7 O7         -6.8308    0.5109   51.4530 O.3     1  ZINC000508571532   -0.3100
      8 C8         -7.9957    0.8189   52.2213 C.3     1  ZINC000508571532    0.1500
      9 C9         -8.8814   -0.3977   52.3005 C.2     1  ZINC000508571532    0.1700
     10 N10        -8.7351   -1.5045   51.6287 N.2     1  ZINC000508571532   -0.2500
     11 N11        -9.6665   -2.3343   51.9383 N.2     1  ZINC000508571532   -0.3000
     12 C12       -10.4634   -1.7971   52.8316 C.2     1  ZINC000508571532    0.3500
     13 N13       -11.5779   -2.3896   53.4038 N.3     1  ZINC000508571532   -0.4600
     14 C14       -12.7464   -2.2759   52.5208 C.3     1  ZINC000508571532    0.0300
     15 C15       -11.3109   -3.7932   53.7454 C.3     1  ZINC000508571532    0.1100
     16 C16       -12.3371   -4.2722   54.7396 C.ar    1  ZINC000508571532   -0.0900
     17 C17       -13.4958   -4.8807   54.2981 C.ar    1  ZINC000508571532   -0.0600
     18 C18       -14.4381   -5.3200   55.2099 C.ar    1  ZINC000508571532   -0.1300
     19 C19       -14.2230   -5.1521   56.5650 C.ar    1  ZINC000508571532   -0.0700
     20 C20       -13.0653   -4.5445   57.0119 C.ar    1  ZINC000508571532   -0.1900
     21 C21       -12.1161   -4.1076   56.0995 C.ar    1  ZINC000508571532    0.1100
     22 O22       -10.9766   -3.5097   56.5365 O.3     1  ZINC000508571532   -0.3100
     23 C23       -11.1243   -2.3049   57.2905 C.3     1  ZINC000508571532    0.6000
     24 F24       -10.0895   -1.4213   56.9652 F       1  ZINC000508571532   -0.1600
     25 F25       -12.3553   -1.7131   56.9875 F       1  ZINC000508571532   -0.1300
     26 F26       -11.0728   -2.6005   58.6568 F       1  ZINC000508571532   -0.1600
     27 N27        -9.9843   -0.5469   53.0951 N.pl3   1  ZINC000508571532   -0.4500
     28 C28       -10.5414    0.4353   54.0283 C.3     1  ZINC000508571532    0.0800
     29 C29        -4.7110    1.2350   50.6524 C.ar    1  ZINC000508571532   -0.1700
     30 C30        -3.7348    2.2092   50.5756 C.ar    1  ZINC000508571532   -0.1100
     31 H31        -1.0966    4.9163   50.4141 H       1  ZINC000508571532    0.1000
     32 H32        -1.2906    3.1910   50.8064 H       1  ZINC000508571532    0.0600
     33 H33        -2.0733    3.8679   49.3580 H       1  ZINC000508571532    0.0600
     34 H34        -5.2032    4.5953   52.4681 H       1  ZINC000508571532    0.1400
     35 H35        -6.9455    2.8618   52.5996 H       1  ZINC000508571532    0.1300
     36 H36        -7.6993    1.1186   53.2265 H       1  ZINC000508571532    0.0800
     37 H37        -8.5400    1.6342   51.7448 H       1  ZINC000508571532    0.1000
     38 H38       -12.5932   -2.8914   51.6343 H       1  ZINC000508571532    0.0600
     39 H39       -13.6363   -2.6163   53.0501 H       1  ZINC000508571532    0.0800
     40 H40       -12.8766   -1.2356   52.2227 H       1  ZINC000508571532    0.0700
     41 H41       -11.3659   -4.4033   52.8439 H       1  ZINC000508571532    0.0700
     42 H42       -10.3154   -3.8779   54.1813 H       1  ZINC000508571532    0.0900
     43 H43       -13.6662   -5.0130   53.2398 H       1  ZINC000508571532    0.1400
     44 H44       -15.3438   -5.7948   54.8626 H       1  ZINC000508571532    0.1300
     45 H45       -14.9605   -5.4958   57.2751 H       1  ZINC000508571532    0.1400
     46 H46       -12.8978   -4.4133   58.0707 H       1  ZINC000508571532    0.1400
     47 H47       -10.0285    0.3574   54.9869 H       1  ZINC000508571532    0.0900
     48 H48       -10.4056    1.4385   53.6240 H       1  ZINC000508571532    0.0900
     49 H49       -11.6047    0.2410   54.1684 H       1  ZINC000508571532    0.1000
     50 H50        -4.5742    0.2922   50.1436 H       1  ZINC000508571532    0.1400
     51 H51        -2.8336    2.0272   50.0089 H       1  ZINC000508571532    0.1400
@<TRIPOS>BOND
     1     1     2    1
     2     1    31    1
     3     1    32    1
     4     1    33    1
     5     2     3    1
     6     3    30   ar
     7     3     4   ar
     8     4     5   ar
     9     4    34    1
    10     5     6   ar
    11     5    35    1
    12     6     7    1
    13     6    29   ar
    14     7     8    1
    15     8     9    1
    16     8    36    1
    17     8    37    1
    18     9    27    1
    19     9    10    2
    20    10    11    1
    21    11    12    2
    22    12    13    1
    23    12    27    1
    24    13    14    1
    25    13    15    1
    26    14    38    1
    27    14    39    1
    28    14    40    1
    29    15    16    1
    30    15    41    1
    31    15    42    1
    32    16    21   ar
    33    16    17   ar
    34    17    18   ar
    35    17    43    1
    36    18    19   ar
    37    18    44    1
    38    19    20   ar
    39    19    45    1
    40    20    21   ar
    41    20    46    1
    42    21    22    1
    43    22    23    1
    44    23    24    1
    45    23    25    1
    46    23    26    1
    47    27    28    1
    48    28    47    1
    49    28    48    1
    50    28    49    1
    51    29    30   ar
    52    29    50    1
    53    30    51    1
@<TRIPOS>SUBSTRUCTURE
     1 ZINC000508571532        1 TEMP              0 ****  ****    0 ROOT


##########                                Name:    ZINC000912668252
##########                DOCK_Rotatable_Bonds:                  10
##########                         Heavy_Atoms:                  30
##########                    Molecular_Weight:             411.433
##########                DOCK_Rotatable_Bonds:                  10
##########                       Formal_Charge:           0.0199993
##########                     HBond_Acceptors:                   8
##########                        HBond_Donors:                   2
##########                         Heavy_Atoms:                  30
##########                          Grid_Score:          -37.638954
##########                     Grid_vdw_energy:          -37.278011
##########                      Grid_es_energy:           -0.360943
##########           Internal_energy_repulsive:           18.285856

@<TRIPOS>MOLECULE
ZINC000912668252
 52 54 1 0 0
SMALL
USER_CHARGES


@<TRIPOS>ATOM
      1 C1        -14.8191   -2.9863   54.7159 C.3     1  ZINC000912668252   -0.1700
      2 C2        -14.0468   -2.1607   55.7468 C.3     1  ZINC000912668252    0.1100
      3 N3        -13.1909   -3.0466   56.5397 N.am    1  ZINC000912668252   -0.6100
      4 C4        -13.6060   -3.4562   57.8836 C.3     1  ZINC000912668252    0.1000
      5 C5        -14.6153   -4.6013   57.7788 C.3     1  ZINC000912668252   -0.1800
      6 C6        -12.0215   -3.4849   56.0328 C.2     1  ZINC000912668252    0.5600
      7 O7        -11.3113   -4.2198   56.6907 O.2     1  ZINC000912668252   -0.5300
      8 C8        -11.6025   -3.0715   54.6764 C.ar    1  ZINC000912668252   -0.1100
      9 C9        -11.7224   -3.9588   53.6056 C.ar    1  ZINC000912668252   -0.1100
     10 C10       -11.3311   -3.5703   52.3403 C.ar    1  ZINC000912668252   -0.1000
     11 C11       -10.8199   -2.3038   52.1285 C.ar    1  ZINC000912668252   -0.1200
     12 C12       -10.6965   -1.4128   53.1881 C.ar    1  ZINC000912668252    0.1400
     13 N13       -10.1786   -0.1313   52.9682 N.am    1  ZINC000912668252   -0.6700
     14 C14        -8.9814    0.0178   52.3674 C.2     1  ZINC000912668252    0.5200
     15 O15        -8.3528   -0.9587   52.0174 O.2     1  ZINC000912668252   -0.4900
     16 C16        -8.4238    1.3976   52.1306 C.3     1  ZINC000912668252    0.0500
     17 O17        -7.2044    1.2992   51.3484 O.3     1  ZINC000912668252   -0.3300
     18 C18        -6.1166    1.9356   51.8278 C.2     1  ZINC000912668252    0.5400
     19 O19        -6.1821    2.5444   52.8781 O.2     1  ZINC000912668252   -0.4800
     20 C20        -4.8523    1.8933   51.0810 C.2     1  ZINC000912668252    0.0400
     21 C21        -3.6774    2.4428   51.4884 C.2     1  ZINC000912668252   -0.0900
     22 C22        -2.7096    2.1813   50.4892 C.ar    1  ZINC000912668252   -0.1000
     23 C23        -1.3505    2.4966   50.3608 C.ar    1  ZINC000912668252   -0.0900
     24 C24        -0.6624    2.0968   49.2500 C.ar    1  ZINC000912668252    0.0700
     25 F25         0.6481    2.4020   49.1282 F       1  ZINC000912668252   -0.1400
     26 C26        -1.2994    1.3782   48.2439 C.ar    1  ZINC000912668252   -0.1100
     27 C27        -2.6345    1.0574   48.3484 C.ar    1  ZINC000912668252   -0.1000
     28 C28        -3.3562    1.4538   49.4706 C.ar    1  ZINC000912668252    0.1100
     29 N29        -4.6659    1.2834   49.8552 N.pl3   1  ZINC000912668252   -0.5600
     30 C30       -11.0915   -1.7915   54.4615 C.ar    1  ZINC000912668252   -0.0700
     31 H31       -15.4559   -2.3271   54.1258 H       1  ZINC000912668252    0.0700
     32 H32       -14.1154   -3.4962   54.0579 H       1  ZINC000912668252    0.0600
     33 H33       -15.4362   -3.7236   55.2293 H       1  ZINC000912668252    0.0600
     34 H34       -13.4297   -1.4233   55.2333 H       1  ZINC000912668252    0.0800
     35 H35       -14.7505   -1.6507   56.4047 H       1  ZINC000912668252    0.0900
     36 H36       -12.7347   -3.7902   58.4470 H       1  ZINC000912668252    0.0900
     37 H37       -14.0671   -2.6111   58.3948 H       1  ZINC000912668252    0.0800
     38 H38       -15.6059   -4.1949   57.5749 H       1  ZINC000912668252    0.0600
     39 H39       -14.3233   -5.2701   56.9693 H       1  ZINC000912668252    0.0700
     40 H40       -14.6358   -5.1546   58.7178 H       1  ZINC000912668252    0.0700
     41 H41       -12.1211   -4.9495   53.7672 H       1  ZINC000912668252    0.1400
     42 H42       -11.4242   -4.2584   51.5132 H       1  ZINC000912668252    0.1400
     43 H43       -10.5150   -2.0055   51.1363 H       1  ZINC000912668252    0.1300
     44 H44       -10.6814    0.6496   53.2480 H       1  ZINC000912668252    0.4200
     45 H45        -9.1555    1.9972   51.5890 H       1  ZINC000912668252    0.1100
     46 H46        -8.2042    1.8700   53.0881 H       1  ZINC000912668252    0.1100
     47 H47        -3.5123    2.9827   52.4091 H       1  ZINC000912668252    0.1700
     48 H48        -0.8483    3.0543   51.1374 H       1  ZINC000912668252    0.1400
     49 H49        -0.7418    1.0691   47.3722 H       1  ZINC000912668252    0.1400
     50 H50        -3.1205    0.4997   47.5616 H       1  ZINC000912668252    0.1400
     51 H51        -5.3469    0.8140   49.3484 H       1  ZINC000912668252    0.4300
     52 H52       -10.9965   -1.1006   55.2861 H       1  ZINC000912668252    0.1400
@<TRIPOS>BOND
     1     1     2    1
     2     1    31    1
     3     1    32    1
     4     1    33    1
     5     2     3    1
     6     2    34    1
     7     2    35    1
     8     3     4    1
     9     3     6   am
    10     4     5    1
    11     4    36    1
    12     4    37    1
    13     5    38    1
    14     5    39    1
    15     5    40    1
    16     6     7    2
    17     6     8    1
    18     8    30   ar
    19     8     9   ar
    20     9    10   ar
    21     9    41    1
    22    10    11   ar
    23    10    42    1
    24    11    12   ar
    25    11    43    1
    26    12    13    1
    27    12    30   ar
    28    13    14   am
    29    13    44    1
    30    14    15    2
    31    14    16    1
    32    16    17    1
    33    16    45    1
    34    16    46    1
    35    17    18    1
    36    18    19    2
    37    18    20    1
    38    20    29    1
    39    20    21    2
    40    21    22    1
    41    21    47    1
    42    22    28   ar
    43    22    23   ar
    44    23    24   ar
    45    23    48    1
    46    24    25    1
    47    24    26   ar
    48    26    27   ar
    49    26    49    1
    50    27    28   ar
    51    27    50    1
    52    28    29    1
    53    29    51    1
    54    30    52    1
@<TRIPOS>SUBSTRUCTURE
     1 ZINC000912668252        1 TEMP              0 ****  ****    0 ROOT


##########                                Name:    ZINC000573650873
##########                DOCK_Rotatable_Bonds:                  10
##########                         Heavy_Atoms:                  28
##########                    Molecular_Weight:             418.843
##########                DOCK_Rotatable_Bonds:                  10
##########                       Formal_Charge:          -0.0500001
##########                     HBond_Acceptors:                   9
##########                        HBond_Donors:                   1
##########                         Heavy_Atoms:                  28
##########                          Grid_Score:          -37.623123
##########                     Grid_vdw_energy:          -37.568600
##########                      Grid_es_energy:           -0.054523
##########           Internal_energy_repulsive:           11.967304

@<TRIPOS>MOLECULE
ZINC000573650873
 50 51 1 0 0
SMALL
USER_CHARGES


@<TRIPOS>ATOM
      1 C1        -13.9199   -3.5223   53.2900 C.3     1  ZINC000573650873   -0.1400
      2 C2        -12.4735   -3.2865   53.7295 C.3     1  ZINC000573650873    0.0100
      3 C3        -11.5276   -4.0549   52.8045 C.3     1  ZINC000573650873   -0.1400
      4 C4        -12.1556   -1.7916   53.6564 C.3     1  ZINC000573650873   -0.1500
      5 C5        -12.2937   -3.7696   55.1456 C.2     1  ZINC000573650873   -0.0100
      6 C6        -11.4694   -3.2427   56.0806 C.2     1  ZINC000573650873   -0.1800
      7 C7        -11.6816   -4.0615   57.2245 C.2     1  ZINC000573650873   -0.0300
      8 C8        -11.0273   -3.9294   58.5490 C.2     1  ZINC000573650873    0.6000
      9 O9        -10.0909   -4.6474   58.8384 O.2     1  ZINC000573650873   -0.5100
     10 N10       -11.4714   -3.0127   59.4317 N.am    1  ZINC000573650873   -0.5900
     11 C11       -10.8251   -2.8822   60.7400 C.3     1  ZINC000573650873    0.1200
     12 C12        -9.6939   -1.8560   60.6498 C.3     1  ZINC000573650873   -0.1000
     13 C13        -9.7762   -0.9133   61.8225 C.ar    1  ZINC000573650873   -0.0800
     14 C14        -9.1248   -1.2201   63.0026 C.ar    1  ZINC000573650873   -0.1000
     15 C15        -9.1998   -0.3558   64.0787 C.ar    1  ZINC000573650873   -0.1100
     16 C16        -9.9270    0.8165   63.9745 C.ar    1  ZINC000573650873   -0.0400
     17 Cl17      -10.0213    1.9028   65.3253 Cl      1  ZINC000573650873   -0.0700
     18 C18       -10.5788    1.1231   62.7932 C.ar    1  ZINC000573650873   -0.1100
     19 C19       -10.4983    0.2606   61.7160 C.ar    1  ZINC000573650873   -0.1000
     20 C20       -12.6006   -2.1470   59.0829 C.3     1  ZINC000573650873    0.0700
     21 C21       -13.9128   -2.8816   59.3649 C.3     1  ZINC000573650873    0.0600
     22 H22       -13.8630   -3.8873   58.9476 H       1  ZINC000573650873    0.1400
     23 O23       -14.1199   -2.9614   60.7766 O.3     1  ZINC000573650873   -0.5200
     24 C24       -15.0726   -2.1191   58.7214 C.3     1  ZINC000573650873    0.4300
     25 F25       -14.8697   -2.0409   57.3395 F       1  ZINC000573650873   -0.1700
     26 F26       -16.2724   -2.7908   58.9793 F       1  ZINC000573650873   -0.1700
     27 F27       -15.1364   -0.8283   59.2572 F       1  ZINC000573650873   -0.1800
     28 N28       -12.5719   -4.9553   56.8720 N.2     1  ZINC000573650873   -0.3400
     29 O29       -12.9231   -4.8009   55.7254 O.3     1  ZINC000573650873    0.1300
     30 H30       -14.1464   -4.5873   53.3421 H       1  ZINC000573650873    0.0600
     31 H31       -14.5938   -2.9748   53.9490 H       1  ZINC000573650873    0.0600
     32 H32       -14.0500   -3.1728   52.2658 H       1  ZINC000573650873    0.0700
     33 H33       -11.6578   -3.7055   51.7803 H       1  ZINC000573650873    0.0700
     34 H34       -10.4972   -3.8868   53.1177 H       1  ZINC000573650873    0.0600
     35 H35       -11.7541   -5.1198   52.8566 H       1  ZINC000573650873    0.0600
     36 H36       -12.8295   -1.2441   54.3154 H       1  ZINC000573650873    0.0600
     37 H37       -11.1252   -1.6235   53.9695 H       1  ZINC000573650873    0.0600
     38 H38       -12.2857   -1.4422   52.6321 H       1  ZINC000573650873    0.0700
     39 H39       -10.8048   -2.3972   55.9813 H       1  ZINC000573650873    0.1800
     40 H40       -11.5580   -2.5513   61.4758 H       1  ZINC000573650873    0.0900
     41 H41       -10.4173   -3.8470   61.0415 H       1  ZINC000573650873    0.1000
     42 H42        -8.7336   -2.3716   60.6647 H       1  ZINC000573650873    0.0800
     43 H43        -9.7886   -1.2913   59.7222 H       1  ZINC000573650873    0.0800
     44 H44        -8.5574   -2.1355   63.0840 H       1  ZINC000573650873    0.1300
     45 H45        -8.6913   -0.5958   65.0007 H       1  ZINC000573650873    0.1300
     46 H46       -11.1469    2.0379   62.7113 H       1  ZINC000573650873    0.1300
     47 H47       -11.0067    0.5000   60.7937 H       1  ZINC000573650873    0.1300
     48 H48       -12.5583   -1.2363   59.6803 H       1  ZINC000573650873    0.1000
     49 H49       -12.5482   -1.8901   58.0248 H       1  ZINC000573650873    0.1200
     50 H50       -13.3904   -3.3748   61.2584 H       1  ZINC000573650873    0.3900
@<TRIPOS>BOND
     1     1     2    1
     2     1    30    1
     3     1    31    1
     4     1    32    1
     5     2     3    1
     6     2     4    1
     7     2     5    1
     8     3    33    1
     9     3    34    1
    10     3    35    1
    11     4    36    1
    12     4    37    1
    13     4    38    1
    14     5    29    1
    15     5     6    2
    16     6     7    1
    17     6    39    1
    18     7     8    1
    19     7    28    2
    20     8     9    2
    21     8    10   am
    22    10    11    1
    23    10    20    1
    24    11    12    1
    25    11    40    1
    26    11    41    1
    27    12    13    1
    28    12    42    1
    29    12    43    1
    30    13    19   ar
    31    13    14   ar
    32    14    15   ar
    33    14    44    1
    34    15    16   ar
    35    15    45    1
    36    16    17    1
    37    16    18   ar
    38    18    19   ar
    39    18    46    1
    40    19    47    1
    41    20    21    1
    42    20    48    1
    43    20    49    1
    44    21    22    1
    45    21    23    1
    46    21    24    1
    47    23    50    1
    48    24    25    1
    49    24    26    1
    50    24    27    1
    51    28    29    1
@<TRIPOS>SUBSTRUCTURE
     1 ZINC000573650873        1 TEMP              0 ****  ****    0 ROOT


##########                                Name:    ZINC000981700465
##########                DOCK_Rotatable_Bonds:                   9
##########                         Heavy_Atoms:                  26
##########                    Molecular_Weight:             356.428
##########                DOCK_Rotatable_Bonds:                   9
##########                       Formal_Charge:               -0.01
##########                     HBond_Acceptors:                   8
##########                        HBond_Donors:                   3
##########                         Heavy_Atoms:                  26
##########                          Grid_Score:          -37.615646
##########                     Grid_vdw_energy:          -34.356800
##########                      Grid_es_energy:           -3.258846
##########           Internal_energy_repulsive:           14.292527

@<TRIPOS>MOLECULE
ZINC000981700465
 50 52 1 0 0
SMALL
USER_CHARGES


@<TRIPOS>ATOM
      1 C1        -13.4873    1.8983   63.5528 C.3     1  ZINC000981700465   -0.1500
      2 C2        -12.5829    1.8100   62.3218 C.3     1  ZINC000981700465   -0.1100
      3 C3        -11.1660    2.2486   62.6975 C.3     1  ZINC000981700465   -0.0500
      4 C4        -10.5618    1.2408   63.6410 C.2     1  ZINC000981700465    0.1400
      5 N5        -10.4834    1.3557   64.9380 N.2     1  ZINC000981700465   -0.2900
      6 N6         -9.8579    0.2167   65.4570 N.pl3   1  ZINC000981700465   -0.4600
      7 C7         -9.5535   -0.6034   64.4385 C.2     1  ZINC000981700465    0.1000
      8 C8         -9.9864    0.0029   63.2764 C.2     1  ZINC000981700465   -0.2900
      9 C9         -9.8623   -0.5356   61.9095 C.2     1  ZINC000981700465    0.5900
     10 O10       -10.1131    0.1712   60.9524 O.2     1  ZINC000981700465   -0.5300
     11 N11        -9.4707   -1.8114   61.7210 N.am    1  ZINC000981700465   -0.7300
     12 C12        -9.3490   -2.3471   60.3629 C.3     1  ZINC000981700465    0.1300
     13 C13       -10.6401   -3.0759   59.9846 C.3     1  ZINC000981700465   -0.1100
     14 H14       -11.0242   -3.6366   60.8367 H       1  ZINC000981700465    0.0900
     15 C15       -11.7014   -2.0693   59.4749 C.3     1  ZINC000981700465   -0.1200
     16 C16       -12.6264   -2.9583   58.6071 C.3     1  ZINC000981700465   -0.1300
     17 C17       -11.6620   -3.9377   57.9069 C.3     1  ZINC000981700465    0.1400
     18 H18       -12.1216   -4.9230   57.8295 H       1  ZINC000981700465    0.1000
     19 N19       -11.3201   -3.4377   56.5730 N.am    1  ZINC000981700465   -0.7100
     20 C20       -12.0774   -3.7778   55.5113 C.2     1  ZINC000981700465    0.5600
     21 O21       -13.0429   -4.5005   55.6602 O.2     1  ZINC000981700465   -0.5200
     22 C22       -11.7326   -3.2708   54.1628 C.ar    1  ZINC000981700465   -0.1400
     23 C23       -11.2959   -1.9533   53.9739 C.ar    1  ZINC000981700465   -0.0600
     24 C24       -10.9916   -1.5518   52.6833 C.ar    1  ZINC000981700465    0.0400
     25 N25       -11.1172   -2.4011   51.6822 N.ar    1  ZINC000981700465   -0.2200
     26 N26       -11.5166   -3.6088   51.8484 N.ar    1  ZINC000981700465   -0.2400
     27 C27       -11.8264   -4.0921   53.0358 C.ar    1  ZINC000981700465    0.0700
     28 C28       -10.3982   -4.0152   58.7849 C.3     1  ZINC000981700465   -0.1200
     29 H29       -13.5091    2.9263   63.9146 H       1  ZINC000981700465    0.0600
     30 H30       -14.4966    1.5858   63.2851 H       1  ZINC000981700465    0.0600
     31 H31       -13.1005    1.2457   64.3355 H       1  ZINC000981700465    0.0500
     32 H32       -12.5610    0.7820   61.9600 H       1  ZINC000981700465    0.0600
     33 H33       -12.9697    2.4626   61.5392 H       1  ZINC000981700465    0.0600
     34 H34       -10.5554    2.3150   61.7970 H       1  ZINC000981700465    0.1000
     35 H35       -11.2043    3.2236   63.1833 H       1  ZINC000981700465    0.0800
     36 H36        -9.6750    0.0480   66.3945 H       1  ZINC000981700465    0.4500
     37 H37        -9.0641   -1.5630   64.5148 H       1  ZINC000981700465    0.1800
     38 H38        -9.2694   -2.3748   62.4845 H       1  ZINC000981700465    0.4000
     39 H39        -9.1753   -1.5291   59.6638 H       1  ZINC000981700465    0.0700
     40 H40        -8.5125   -3.0446   60.3209 H       1  ZINC000981700465    0.0700
     41 H41       -12.2535   -1.6352   60.3084 H       1  ZINC000981700465    0.0700
     42 H42       -11.2362   -1.2905   58.8707 H       1  ZINC000981700465    0.0700
     43 H43       -13.3323   -3.5016   59.2354 H       1  ZINC000981700465    0.0800
     44 H44       -13.1564   -2.3532   57.8715 H       1  ZINC000981700465    0.0700
     45 H45       -10.5487   -2.8618   56.4539 H       1  ZINC000981700465    0.4000
     46 H46       -11.1999   -1.2727   54.8070 H       1  ZINC000981700465    0.1700
     47 H47       -10.6519   -0.5436   52.4971 H       1  ZINC000981700465    0.1800
     48 H48       -12.1587   -5.1148   53.1357 H       1  ZINC000981700465    0.1700
     49 H49        -9.5293   -3.6792   58.2191 H       1  ZINC000981700465    0.0800
     50 H50       -10.2463   -5.0374   59.1313 H       1  ZINC000981700465    0.0800
@<TRIPOS>BOND
     1     1     2    1
     2     1    29    1
     3     1    30    1
     4     1    31    1
     5     2     3    1
     6     2    32    1
     7     2    33    1
     8     3     4    1
     9     3    34    1
    10     3    35    1
    11     4     8    1
    12     4     5    2
    13     5     6    1
    14     6     7    1
    15     6    36    1
    16     7     8    2
    17     7    37    1
    18     8     9    1
    19     9    10    2
    20     9    11   am
    21    11    12    1
    22    11    38    1
    23    12    13    1
    24    12    39    1
    25    12    40    1
    26    13    14    1
    27    13    28    1
    28    13    15    1
    29    15    16    1
    30    15    41    1
    31    15    42    1
    32    16    17    1
    33    16    43    1
    34    16    44    1
    35    17    18    1
    36    17    19    1
    37    17    28    1
    38    19    20   am
    39    19    45    1
    40    20    21    2
    41    20    22    1
    42    22    27   ar
    43    22    23   ar
    44    23    24   ar
    45    23    46    1
    46    24    25   ar
    47    24    47    1
    48    25    26   ar
    49    26    27   ar
    50    27    48    1
    51    28    49    1
    52    28    50    1
@<TRIPOS>SUBSTRUCTURE
     1 ZINC000981700465        1 TEMP              0 ****  ****    0 ROOT


##########                                Name:    ZINC000442010511
##########                DOCK_Rotatable_Bonds:                  11
##########                         Heavy_Atoms:                  31
##########                    Molecular_Weight:             422.481
##########                DOCK_Rotatable_Bonds:                  11
##########                       Formal_Charge:          -0.0200005
##########                     HBond_Acceptors:                   7
##########                        HBond_Donors:                   2
##########                         Heavy_Atoms:                  31
##########                          Grid_Score:          -37.602909
##########                     Grid_vdw_energy:          -37.353504
##########                      Grid_es_energy:           -0.249405
##########           Internal_energy_repulsive:            7.934780

@<TRIPOS>MOLECULE
ZINC000442010511
 57 59 1 0 0
SMALL
USER_CHARGES


@<TRIPOS>ATOM
      1 C1         -6.3295    2.5139   57.0779 C.3     1  ZINC000442010511   -0.1500
      2 C2         -7.8573    2.5960   57.0824 C.3     1  ZINC000442010511   -0.0500
      3 C3         -8.3688    2.5184   55.6669 C.2     1  ZINC000442010511    0.0000
      4 C4         -8.5489    3.5618   54.8373 C.2     1  ZINC000442010511   -0.2100
      5 C5         -9.0394    3.0369   53.6196 C.2     1  ZINC000442010511   -0.1900
      6 C6         -9.1296    1.7042   53.7779 C.2     1  ZINC000442010511   -0.0300
      7 C7         -9.6063    0.7234   52.7378 C.3     1  ZINC000442010511    0.2400
      8 H8        -10.2651    1.2318   52.0339 H       1  ZINC000442010511    0.1400
      9 C9         -8.4024    0.1506   51.9872 C.3     1  ZINC000442010511    0.0500
     10 O10        -7.6860    1.2131   51.3546 O.3     1  ZINC000442010511   -0.3800
     11 C11        -6.5627    0.7794   50.5851 C.3     1  ZINC000442010511    0.0300
     12 N12       -10.3370   -0.3652   53.3916 N.am    1  ZINC000442010511   -0.6900
     13 C13       -11.6361   -0.2068   53.7135 C.2     1  ZINC000442010511    0.5200
     14 O14       -12.2002    0.8381   53.4631 O.2     1  ZINC000442010511   -0.5100
     15 C15       -12.3814   -1.3170   54.3783 C.2     1  ZINC000442010511    0.5100
     16 O16       -13.5091   -1.1312   54.7875 O.2     1  ZINC000442010511   -0.5000
     17 N17       -11.8022   -2.5251   54.5240 N.am    1  ZINC000442010511   -0.6300
     18 C18       -12.5002   -3.5649   55.1466 C.ar    1  ZINC000442010511    0.1200
     19 C19       -13.7349   -3.9653   54.6564 C.ar    1  ZINC000442010511   -0.1000
     20 C20       -14.4228   -4.9931   55.2735 C.ar    1  ZINC000442010511   -0.1300
     21 C21       -13.8838   -5.6245   56.3793 C.ar    1  ZINC000442010511   -0.0900
     22 C22       -12.6541   -5.2312   56.8742 C.ar    1  ZINC000442010511   -0.1700
     23 C23       -11.9548   -4.2060   56.2582 C.ar    1  ZINC000442010511    0.1000
     24 O24       -10.7458   -3.8181   56.7436 O.3     1  ZINC000442010511   -0.2600
     25 C25       -10.7129   -3.1956   57.9509 C.ar    1  ZINC000442010511    0.0800
     26 C26       -11.1443   -1.8819   58.0674 C.ar    1  ZINC000442010511   -0.1300
     27 C27       -11.1102   -1.2514   59.2960 C.ar    1  ZINC000442010511   -0.1100
     28 C28       -10.6462   -1.9280   60.4090 C.ar    1  ZINC000442010511   -0.0800
     29 C29       -10.6096   -1.2375   61.7480 C.3     1  ZINC000442010511   -0.1200
     30 C30       -10.2161   -3.2372   60.2958 C.ar    1  ZINC000442010511   -0.1100
     31 C31       -10.2530   -3.8741   59.0704 C.ar    1  ZINC000442010511   -0.1100
     32 O32        -8.7167    1.3952   55.0181 O.3     1  ZINC000442010511   -0.1600
     33 H33        -6.0177    1.5704   56.6301 H       1  ZINC000442010511    0.0600
     34 H34        -5.9229    3.3429   56.4986 H       1  ZINC000442010511    0.0600
     35 H35        -5.9596    2.5701   58.1016 H       1  ZINC000442010511    0.0700
     36 H36        -8.2640    1.7671   57.6616 H       1  ZINC000442010511    0.0900
     37 H37        -8.1692    3.5395   57.5302 H       1  ZINC000442010511    0.0800
     38 H38        -8.3564    4.6011   55.0590 H       1  ZINC000442010511    0.1500
     39 H39        -9.2932    3.5983   52.7326 H       1  ZINC000442010511    0.1500
     40 H40        -7.7460   -0.3620   52.6903 H       1  ZINC000442010511    0.0700
     41 H41        -8.7476   -0.5552   51.2316 H       1  ZINC000442010511    0.0700
     42 H42        -6.0729    1.6443   50.1378 H       1  ZINC000442010511    0.0900
     43 H43        -5.8584    0.2574   51.2328 H       1  ZINC000442010511    0.0400
     44 H44        -6.9002    0.1055   49.7976 H       1  ZINC000442010511    0.0400
     45 H45        -9.8857   -1.1999   53.5929 H       1  ZINC000442010511    0.4200
     46 H46       -10.9011   -2.6735   54.1971 H       1  ZINC000442010511    0.4300
     47 H47       -14.1587   -3.4738   53.7931 H       1  ZINC000442010511    0.1600
     48 H48       -15.3839   -5.3036   54.8912 H       1  ZINC000442010511    0.1300
     49 H49       -14.4252   -6.4270   56.8580 H       1  ZINC000442010511    0.1300
     50 H50       -12.2367   -5.7261   57.7385 H       1  ZINC000442010511    0.1300
     51 H51       -11.5062   -1.3527   57.1982 H       1  ZINC000442010511    0.1300
     52 H52       -11.4460   -0.2289   59.3873 H       1  ZINC000442010511    0.1300
     53 H53       -11.5539   -1.4015   62.2673 H       1  ZINC000442010511    0.0700
     54 H54        -9.7920   -1.6432   62.3439 H       1  ZINC000442010511    0.0700
     55 H55       -10.4565   -0.1683   61.6014 H       1  ZINC000442010511    0.0700
     56 H56        -9.8540   -3.7634   61.1666 H       1  ZINC000442010511    0.1300
     57 H57        -9.9171   -4.8968   58.9826 H       1  ZINC000442010511    0.1300
@<TRIPOS>BOND
     1     1     2    1
     2     1    33    1
     3     1    34    1
     4     1    35    1
     5     2     3    1
     6     2    36    1
     7     2    37    1
     8     3    32    1
     9     3     4    2
    10     4     5    1
    11     4    38    1
    12     5     6    2
    13     5    39    1
    14     6     7    1
    15     6    32    1
    16     7     8    1
    17     7     9    1
    18     7    12    1
    19     9    10    1
    20     9    40    1
    21     9    41    1
    22    10    11    1
    23    11    42    1
    24    11    43    1
    25    11    44    1
    26    12    13   am
    27    12    45    1
    28    13    14    2
    29    13    15    1
    30    15    16    2
    31    15    17   am
    32    17    18    1
    33    17    46    1
    34    18    23   ar
    35    18    19   ar
    36    19    20   ar
    37    19    47    1
    38    20    21   ar
    39    20    48    1
    40    21    22   ar
    41    21    49    1
    42    22    23   ar
    43    22    50    1
    44    23    24    1
    45    24    25    1
    46    25    31   ar
    47    25    26   ar
    48    26    27   ar
    49    26    51    1
    50    27    28   ar
    51    27    52    1
    52    28    29    1
    53    28    30   ar
    54    29    53    1
    55    29    54    1
    56    29    55    1
    57    30    31   ar
    58    30    56    1
    59    31    57    1
@<TRIPOS>SUBSTRUCTURE
     1 ZINC000442010511        1 TEMP              0 ****  ****    0 ROOT


##########                                Name:    ZINC000435005159
##########                DOCK_Rotatable_Bonds:                  12
##########                         Heavy_Atoms:                  30
##########                    Molecular_Weight:             401.508
##########                DOCK_Rotatable_Bonds:                  12
##########                       Formal_Charge:          -0.0399985
##########                     HBond_Acceptors:                   5
##########                        HBond_Donors:                   2
##########                         Heavy_Atoms:                  30
##########                          Grid_Score:          -37.593231
##########                     Grid_vdw_energy:          -36.661705
##########                      Grid_es_energy:           -0.931524
##########           Internal_energy_repulsive:           11.015807

@<TRIPOS>MOLECULE
ZINC000435005159
 57 59 1 0 0
SMALL
USER_CHARGES


@<TRIPOS>ATOM
      1 O1        -14.0382   -5.0066   58.0023 O.2     1  ZINC000435005159   -0.5300
      2 C2        -14.3860   -4.0127   57.4004 C.2     1  ZINC000435005159    0.5200
      3 C3        -15.7243   -3.3846   57.6927 C.3     1  ZINC000435005159   -0.1400
      4 C4        -15.8885   -3.2140   59.2043 C.3     1  ZINC000435005159   -0.1200
      5 C5        -14.8827   -2.1794   59.7129 C.3     1  ZINC000435005159    0.1200
      6 N6        -15.0457   -2.0098   61.1590 N.am    1  ZINC000435005159   -0.7200
      7 C7        -14.6810   -0.8533   61.7472 C.2     1  ZINC000435005159    0.5600
      8 O8        -14.2157    0.0485   61.0781 O.2     1  ZINC000435005159   -0.5300
      9 C9        -14.8471   -0.6816   63.2062 C.ar    1  ZINC000435005159   -0.1900
     10 C10       -15.4166   -1.6979   63.9822 C.ar    1  ZINC000435005159   -0.0200
     11 C11       -15.5493   -1.4874   65.3437 C.ar    1  ZINC000435005159   -0.1800
     12 C12       -15.1191   -0.2913   65.8888 C.ar    1  ZINC000435005159    0.1200
     13 N13       -14.5861    0.6495   65.1324 N.ar    1  ZINC000435005159   -0.4900
     14 C14       -14.4334    0.4943   63.8339 C.ar    1  ZINC000435005159    0.1400
     15 N15       -13.5733   -3.4668   56.4741 N.am    1  ZINC000435005159   -0.7300
     16 C16       -12.2724   -4.0775   56.1900 C.3     1  ZINC000435005159    0.1900
     17 H17       -12.3810   -5.1613   56.1481 H       1  ZINC000435005159    0.1000
     18 C18       -11.7510   -3.5650   54.8459 C.3     1  ZINC000435005159   -0.1200
     19 C19       -12.3316   -4.4168   53.7154 C.3     1  ZINC000435005159   -0.0800
     20 C20       -13.2637   -3.5765   52.8810 C.ar    1  ZINC000435005159   -0.0800
     21 C21       -14.6198   -3.5746   53.1494 C.ar    1  ZINC000435005159   -0.1200
     22 C22       -15.4748   -2.8038   52.3842 C.ar    1  ZINC000435005159   -0.1200
     23 C23       -14.9737   -2.0344   51.3508 C.ar    1  ZINC000435005159   -0.1200
     24 C24       -13.6175   -2.0356   51.0830 C.ar    1  ZINC000435005159   -0.1200
     25 C25       -12.7620   -2.8031   51.8510 C.ar    1  ZINC000435005159   -0.1200
     26 C26       -11.2972   -3.7121   57.2794 C.ar    1  ZINC000435005159   -0.1000
     27 C27       -10.9313   -2.3920   57.4650 C.ar    1  ZINC000435005159   -0.1100
     28 C28       -10.0368   -2.0568   58.4642 C.ar    1  ZINC000435005159   -0.1200
     29 C29        -9.5086   -3.0416   59.2781 C.ar    1  ZINC000435005159   -0.1200
     30 C30        -9.8753   -4.3614   59.0929 C.ar    1  ZINC000435005159   -0.1200
     31 C31       -10.7731   -4.6961   58.0965 C.ar    1  ZINC000435005159   -0.1000
     32 H32       -15.7816   -2.4095   57.2087 H       1  ZINC000435005159    0.1000
     33 H33       -16.5182   -4.0267   57.3112 H       1  ZINC000435005159    0.1000
     34 H34       -16.9009   -2.8752   59.4238 H       1  ZINC000435005159    0.0800
     35 H35       -15.7095   -4.1686   59.6991 H       1  ZINC000435005159    0.0800
     36 H36       -13.8701   -2.5211   59.4990 H       1  ZINC000435005159    0.0700
     37 H37       -15.0578   -1.2264   59.2136 H       1  ZINC000435005159    0.0700
     38 H38       -15.4159   -2.7300   61.6931 H       1  ZINC000435005159    0.4000
     39 H39       -15.7445   -2.6223   63.5301 H       1  ZINC000435005159    0.1500
     40 H40       -15.9845   -2.2489   65.9737 H       1  ZINC000435005159    0.1500
     41 H41       -15.2214   -0.1244   66.9510 H       1  ZINC000435005159    0.1600
     42 H42       -13.9925    1.2873   63.2481 H       1  ZINC000435005159    0.1600
     43 H43       -13.8499   -2.6697   55.9956 H       1  ZINC000435005159    0.4000
     44 H44       -12.0539   -2.5266   54.7108 H       1  ZINC000435005159    0.0700
     45 H45       -10.6632   -3.6313   54.8289 H       1  ZINC000435005159    0.0800
     46 H46       -11.5215   -4.7911   53.0896 H       1  ZINC000435005159    0.0700
     47 H47       -12.8814   -5.2573   54.1392 H       1  ZINC000435005159    0.0700
     48 H48       -15.0113   -4.1758   53.9568 H       1  ZINC000435005159    0.1200
     49 H49       -16.5343   -2.8029   52.5933 H       1  ZINC000435005159    0.1200
     50 H50       -15.6418   -1.4327   50.7524 H       1  ZINC000435005159    0.1200
     51 H51       -13.2260   -1.4348   50.2754 H       1  ZINC000435005159    0.1200
     52 H52       -11.7024   -2.8040   51.6418 H       1  ZINC000435005159    0.1200
     53 H53       -11.3438   -1.6227   56.8292 H       1  ZINC000435005159    0.1200
     54 H54        -9.7503   -1.0256   58.6088 H       1  ZINC000435005159    0.1200
     55 H55        -8.8093   -2.7797   60.0582 H       1  ZINC000435005159    0.1200
     56 H56        -9.4625   -5.1308   59.7285 H       1  ZINC000435005159    0.1200
     57 H57       -11.0596   -5.7273   57.9519 H       1  ZINC000435005159    0.1200
@<TRIPOS>BOND
     1     1     2    2
     2     2     3    1
     3     2    15   am
     4     3     4    1
     5     3    32    1
     6     3    33    1
     7     4     5    1
     8     4    34    1
     9     4    35    1
    10     5     6    1
    11     5    36    1
    12     5    37    1
    13     6     7   am
    14     6    38    1
    15     7     8    2
    16     7     9    1
    17     9    14   ar
    18     9    10   ar
    19    10    11   ar
    20    10    39    1
    21    11    12   ar
    22    11    40    1
    23    12    13   ar
    24    12    41    1
    25    13    14   ar
    26    14    42    1
    27    15    16    1
    28    15    43    1
    29    16    17    1
    30    16    18    1
    31    16    26    1
    32    18    19    1
    33    18    44    1
    34    18    45    1
    35    19    20    1
    36    19    46    1
    37    19    47    1
    38    20    25   ar
    39    20    21   ar
    40    21    22   ar
    41    21    48    1
    42    22    23   ar
    43    22    49    1
    44    23    24   ar
    45    23    50    1
    46    24    25   ar
    47    24    51    1
    48    25    52    1
    49    26    31   ar
    50    26    27   ar
    51    27    28   ar
    52    27    53    1
    53    28    29   ar
    54    28    54    1
    55    29    30   ar
    56    29    55    1
    57    30    31   ar
    58    30    56    1
    59    31    57    1
@<TRIPOS>SUBSTRUCTURE
     1 ZINC000435005159        1 TEMP              0 ****  ****    0 ROOT


##########                                Name:    ZINC000150894060
##########                DOCK_Rotatable_Bonds:                  10
##########                         Heavy_Atoms:                  27
##########                    Molecular_Weight:              366.42
##########                DOCK_Rotatable_Bonds:                  10
##########                       Formal_Charge:        -6.70552e-07
##########                     HBond_Acceptors:                   7
##########                        HBond_Donors:                   2
##########                         Heavy_Atoms:                  27
##########                          Grid_Score:          -37.533100
##########                     Grid_vdw_energy:          -35.997547
##########                      Grid_es_energy:           -1.535551
##########           Internal_energy_repulsive:           12.292021

@<TRIPOS>MOLECULE
ZINC000150894060
 49 51 1 0 0
SMALL
USER_CHARGES


@<TRIPOS>ATOM
      1 C1        -11.5473   -2.7752   52.3739 C.3     1  ZINC000150894060   -0.1000
      2 C2        -12.8985   -3.1257   52.9419 C.2     1  ZINC000150894060   -0.0800
      3 C3        -13.1501   -3.6763   54.1658 C.2     1  ZINC000150894060   -0.1000
      4 C4        -12.1455   -4.0363   55.1718 C.2     1  ZINC000150894060    0.6100
      5 O5        -10.9692   -3.7991   54.9691 O.2     1  ZINC000150894060   -0.5100
      6 N6        -12.5250   -4.6299   56.3207 N.am    1  ZINC000150894060   -0.7200
      7 C7        -11.5216   -4.9880   57.3264 C.3     1  ZINC000150894060    0.1200
      8 C8        -11.3749   -3.8432   58.3306 C.3     1  ZINC000150894060   -0.1500
      9 C9        -10.2051   -4.1372   59.2719 C.3     1  ZINC000150894060    0.1200
     10 N10       -10.2570   -3.2233   60.4157 N.am    1  ZINC000150894060   -0.7300
     11 C11        -9.6913   -2.0031   60.3296 C.2     1  ZINC000150894060    0.5600
     12 O12        -9.1392   -1.6603   59.3024 O.2     1  ZINC000150894060   -0.5300
     13 C13        -9.7422   -1.0815   61.4845 C.ar    1  ZINC000150894060   -0.1300
     14 C14        -9.1269   -1.4308   62.6877 C.ar    1  ZINC000150894060   -0.0900
     15 C15        -9.1776   -0.5660   63.7614 C.ar    1  ZINC000150894060   -0.0900
     16 C16        -9.8369    0.6451   63.6476 C.ar    1  ZINC000150894060   -0.0800
     17 C17        -9.8888    1.5845   64.8247 C.3     1  ZINC000150894060    0.1700
     18 N18       -11.2514    2.1004   64.9781 N.pl3   1  ZINC000150894060   -0.3700
     19 C19       -11.6381    3.3827   64.8127 C.2     1  ZINC000150894060    0.0500
     20 C20       -12.9700    3.4449   65.0439 C.2     1  ZINC000150894060   -0.2700
     21 C21       -13.4123    2.1564   65.3613 C.2     1  ZINC000150894060    0.0400
     22 N22       -12.3841    1.3486   65.3161 N.2     1  ZINC000150894060   -0.2900
     23 C23       -10.4485    0.9976   62.4576 C.ar    1  ZINC000150894060   -0.1100
     24 C24       -10.4007    0.1443   61.3746 C.ar    1  ZINC000150894060   -0.0600
     25 O25       -14.4848   -3.8309   54.2875 O.3     1  ZINC000150894060   -0.1700
     26 C26       -15.0864   -3.3934   53.1739 C.2     1  ZINC000150894060    0.0000
     27 C27       -14.1425   -2.9439   52.3178 C.2     1  ZINC000150894060   -0.2300
     28 H28       -11.2917   -1.7520   52.6493 H       1  ZINC000150894060    0.0800
     29 H29       -10.7970   -3.4573   52.7737 H       1  ZINC000150894060    0.0900
     30 H30       -11.5760   -2.8626   51.2877 H       1  ZINC000150894060    0.0700
     31 H31       -13.4624   -4.8201   56.4818 H       1  ZINC000150894060    0.4100
     32 H32       -11.8370   -5.8913   57.8486 H       1  ZINC000150894060    0.0800
     33 H33       -10.5643   -5.1669   56.8369 H       1  ZINC000150894060    0.0800
     34 H34       -11.1858   -2.9125   57.7957 H       1  ZINC000150894060    0.0800
     35 H35       -12.2930   -3.7487   58.9106 H       1  ZINC000150894060    0.0800
     36 H36       -10.2730   -5.1660   59.6254 H       1  ZINC000150894060    0.0800
     37 H37        -9.2652   -3.9978   58.7379 H       1  ZINC000150894060    0.0800
     38 H38       -10.6986   -3.4964   61.2351 H       1  ZINC000150894060    0.4000
     39 H39        -8.6126   -2.3761   62.7781 H       1  ZINC000150894060    0.1300
     40 H40        -8.7020   -0.8351   64.6929 H       1  ZINC000150894060    0.1300
     41 H41        -9.5988    1.0500   65.7293 H       1  ZINC000150894060    0.1100
     42 H42        -9.2026    2.4148   64.6575 H       1  ZINC000150894060    0.1000
     43 H43       -10.9990    4.2109   64.5445 H       1  ZINC000150894060    0.1700
     44 H44       -13.5830    4.3326   64.9929 H       1  ZINC000150894060    0.1500
     45 H45       -14.4281    1.8760   65.5976 H       1  ZINC000150894060    0.1800
     46 H46       -10.9613    1.9445   62.3751 H       1  ZINC000150894060    0.1300
     47 H47       -10.8782    0.4208   60.4462 H       1  ZINC000150894060    0.1400
     48 H48       -16.1510   -3.3955   52.9918 H       1  ZINC000150894060    0.2100
     49 H49       -14.3128   -2.5288   51.3353 H       1  ZINC000150894060    0.1600
@<TRIPOS>BOND
     1     1     2    1
     2     1    28    1
     3     1    29    1
     4     1    30    1
     5     2    27    1
     6     2     3    2
     7     3     4    1
     8     3    25    1
     9     4     5    2
    10     4     6   am
    11     6     7    1
    12     6    31    1
    13     7     8    1
    14     7    32    1
    15     7    33    1
    16     8     9    1
    17     8    34    1
    18     8    35    1
    19     9    10    1
    20     9    36    1
    21     9    37    1
    22    10    11   am
    23    10    38    1
    24    11    12    2
    25    11    13    1
    26    13    24   ar
    27    13    14   ar
    28    14    15   ar
    29    14    39    1
    30    15    16   ar
    31    15    40    1
    32    16    17    1
    33    16    23   ar
    34    17    18    1
    35    17    41    1
    36    17    42    1
    37    18    22    1
    38    18    19    1
    39    19    20    2
    40    19    43    1
    41    20    21    1
    42    20    44    1
    43    21    22    2
    44    21    45    1
    45    23    24   ar
    46    23    46    1
    47    24    47    1
    48    25    26    1
    49    26    27    2
    50    26    48    1
    51    27    49    1
@<TRIPOS>SUBSTRUCTURE
     1 ZINC000150894060        1 TEMP              0 ****  ****    0 ROOT


##########                                Name:    ZINC001492779707
##########                DOCK_Rotatable_Bonds:                   8
##########                         Heavy_Atoms:                  27
##########                    Molecular_Weight:             374.483
##########                DOCK_Rotatable_Bonds:                   8
##########                       Formal_Charge:           0.0199998
##########                     HBond_Acceptors:                   7
##########                        HBond_Donors:                   0
##########                         Heavy_Atoms:                  27
##########                          Grid_Score:          -37.512833
##########                     Grid_vdw_energy:          -36.230537
##########                      Grid_es_energy:           -1.282295
##########           Internal_energy_repulsive:           15.751204

@<TRIPOS>MOLECULE
ZINC001492779707
 57 59 1 0 0
SMALL
USER_CHARGES


@<TRIPOS>ATOM
      1 C1         -7.9586    1.3302   51.8456 C.3     1  ZINC001492779707   -0.0700
      2 C2         -8.7511    0.0536   51.9594 C.2     1  ZINC001492779707    0.1800
      3 N3         -8.3480   -1.1384   51.6210 N.2     1  ZINC001492779707   -0.2900
      4 N4         -9.2749   -1.9988   51.8505 N.2     1  ZINC001492779707   -0.3100
      5 C5        -10.3276   -1.3969   52.3519 C.2     1  ZINC001492779707    0.3400
      6 N6        -11.5200   -1.9968   52.7245 N.3     1  ZINC001492779707   -0.4600
      7 C7        -12.5266   -1.8721   51.6618 C.3     1  ZINC001492779707    0.0300
      8 C8        -11.3099   -3.4045   53.0881 C.3     1  ZINC001492779707    0.1100
      9 C9        -12.0429   -3.7071   54.3696 C.ar    1  ZINC001492779707   -0.0400
     10 C10       -13.0434   -4.6610   54.3843 C.ar    1  ZINC001492779707   -0.1300
     11 C11       -13.7179   -4.9410   55.5587 C.ar    1  ZINC001492779707   -0.0800
     12 C12       -13.3933   -4.2677   56.7202 C.ar    1  ZINC001492779707   -0.2100
     13 C13       -12.3895   -3.3098   56.7080 C.ar    1  ZINC001492779707    0.1300
     14 O14       -12.0680   -2.6463   57.8497 O.3     1  ZINC001492779707   -0.3100
     15 C15       -10.6965   -2.6720   58.2506 C.3     1  ZINC001492779707    0.0800
     16 C16       -10.4135   -1.4869   59.1761 C.3     1  ZINC001492779707   -0.1500
     17 C17       -10.4063   -3.9786   58.9917 C.3     1  ZINC001492779707   -0.1800
     18 C18       -11.7107   -3.0348   55.5301 C.ar    1  ZINC001492779707   -0.1400
     19 N19       -10.0244   -0.0696   52.4426 N.pl3   1  ZINC001492779707   -0.4600
     20 C20       -10.8875    1.0026   52.9443 C.3     1  ZINC001492779707    0.1200
     21 C21       -10.9417    0.9409   54.4721 C.3     1  ZINC001492779707   -0.1200
     22 C22        -9.6393    1.4968   55.0515 C.3     1  ZINC001492779707    0.0600
     23 H23        -8.7901    1.0307   54.5519 H       1  ZINC001492779707    0.0800
     24 C24        -9.5901    3.0125   54.8379 C.3     1  ZINC001492779707    0.0300
     25 O25        -8.4248    3.5393   55.4796 O.3     1  ZINC001492779707   -0.3800
     26 C26        -8.3681    3.2608   56.8818 C.3     1  ZINC001492779707    0.0200
     27 C27        -8.4173    1.7452   57.0955 C.3     1  ZINC001492779707    0.0300
     28 O28        -9.5819    1.2170   56.4535 O.3     1  ZINC001492779707   -0.3800
     29 H29        -7.3943    1.4907   52.7642 H       1  ZINC001492779707    0.0900
     30 H30        -7.2696    1.2564   51.0041 H       1  ZINC001492779707    0.1000
     31 H31        -8.6386    2.1670   51.6860 H       1  ZINC001492779707    0.0800
     32 H32       -12.2099   -2.4477   50.7920 H       1  ZINC001492779707    0.0500
     33 H33       -13.4829   -2.2526   52.0207 H       1  ZINC001492779707    0.0900
     34 H34       -12.6339   -0.8235   51.3842 H       1  ZINC001492779707    0.0700
     35 H35       -11.6892   -4.0458   52.2925 H       1  ZINC001492779707    0.0700
     36 H36       -10.2446   -3.5890   53.2265 H       1  ZINC001492779707    0.0900
     37 H37       -13.2989   -5.1883   53.4771 H       1  ZINC001492779707    0.1200
     38 H38       -14.4993   -5.6864   55.5675 H       1  ZINC001492779707    0.1300
     39 H39       -13.9206   -4.4864   57.6370 H       1  ZINC001492779707    0.1300
     40 H40       -10.0590   -2.6049   57.3691 H       1  ZINC001492779707    0.0700
     41 H41       -11.0511   -1.5541   60.0577 H       1  ZINC001492779707    0.0700
     42 H42        -9.3675   -1.5065   59.4819 H       1  ZINC001492779707    0.0800
     43 H43       -10.6205   -0.5561   58.6481 H       1  ZINC001492779707    0.0700
     44 H44       -10.6079   -4.8229   58.3323 H       1  ZINC001492779707    0.0600
     45 H45        -9.3601   -3.9982   59.2974 H       1  ZINC001492779707    0.0700
     46 H46       -11.0438   -4.0458   59.8732 H       1  ZINC001492779707    0.0700
     47 H47       -10.9290   -2.2897   55.5180 H       1  ZINC001492779707    0.1300
     48 H48       -10.4864    1.9673   52.6335 H       1  ZINC001492779707    0.1000
     49 H49       -11.8921    0.8795   52.5398 H       1  ZINC001492779707    0.1000
     50 H50       -11.7818    1.5360   54.8302 H       1  ZINC001492779707    0.0900
     51 H51       -11.0681   -0.0941   54.7896 H       1  ZINC001492779707    0.0800
     52 H52        -9.5473    3.2287   53.7704 H       1  ZINC001492779707    0.1100
     53 H53       -10.4810    3.4701   55.2678 H       1  ZINC001492779707    0.0600
     54 H54        -7.4402    3.6569   57.2946 H       1  ZINC001492779707    0.1100
     55 H55        -9.2178    3.7268   57.3805 H       1  ZINC001492779707    0.0600
     56 H56        -7.5264    1.2875   56.6655 H       1  ZINC001492779707    0.0600
     57 H57        -8.4602    1.5289   58.1629 H       1  ZINC001492779707    0.1100
@<TRIPOS>BOND
     1     1     2    1
     2     1    29    1
     3     1    30    1
     4     1    31    1
     5     2    19    1
     6     2     3    2
     7     3     4    1
     8     4     5    2
     9     5     6    1
    10     5    19    1
    11     6     7    1
    12     6     8    1
    13     7    32    1
    14     7    33    1
    15     7    34    1
    16     8     9    1
    17     8    35    1
    18     8    36    1
    19     9    18   ar
    20     9    10   ar
    21    10    11   ar
    22    10    37    1
    23    11    12   ar
    24    11    38    1
    25    12    13   ar
    26    12    39    1
    27    13    14    1
    28    13    18   ar
    29    14    15    1
    30    15    16    1
    31    15    17    1
    32    15    40    1
    33    16    41    1
    34    16    42    1
    35    16    43    1
    36    17    44    1
    37    17    45    1
    38    17    46    1
    39    18    47    1
    40    19    20    1
    41    20    21    1
    42    20    48    1
    43    20    49    1
    44    21    22    1
    45    21    50    1
    46    21    51    1
    47    22    23    1
    48    22    28    1
    49    22    24    1
    50    24    25    1
    51    24    52    1
    52    24    53    1
    53    25    26    1
    54    26    27    1
    55    26    54    1
    56    26    55    1
    57    27    28    1
    58    27    56    1
    59    27    57    1
@<TRIPOS>SUBSTRUCTURE
     1 ZINC001492779707        1 TEMP              0 ****  ****    0 ROOT


##########                                Name:    ZINC000190927708
##########                DOCK_Rotatable_Bonds:                  10
##########                         Heavy_Atoms:                  26
##########                    Molecular_Weight:             358.437
##########                DOCK_Rotatable_Bonds:                  10
##########                       Formal_Charge:           0.0499998
##########                     HBond_Acceptors:                   6
##########                        HBond_Donors:                   1
##########                         Heavy_Atoms:                  26
##########                          Grid_Score:          -37.473766
##########                     Grid_vdw_energy:          -35.871414
##########                      Grid_es_energy:           -1.602353
##########           Internal_energy_repulsive:           27.050400

@<TRIPOS>MOLECULE
ZINC000190927708
 52 53 1 0 0
SMALL
USER_CHARGES


@<TRIPOS>ATOM
      1 C1        -11.1667   -2.5313   52.1097 C.3     1  ZINC000190927708   -0.1500
      2 C2        -11.5423   -2.3509   53.5819 C.3     1  ZINC000190927708   -0.1500
      3 C3        -11.7538   -3.7225   54.2260 C.3     1  ZINC000190927708    0.1000
      4 N4        -12.5406   -3.5701   55.4523 N.am    1  ZINC000190927708   -0.5900
      5 C5        -11.9546   -3.1121   56.5764 C.2     1  ZINC000190927708    0.5300
      6 O6        -10.7757   -2.8278   56.5730 O.2     1  ZINC000190927708   -0.5300
      7 C7        -12.7644   -2.9537   57.8374 C.3     1  ZINC000190927708   -0.0800
      8 C8        -11.8444   -2.6407   58.9892 C.2     1  ZINC000190927708   -0.1700
      9 C9        -11.9918   -1.4806   59.6755 C.2     1  ZINC000190927708    0.0000
     10 C10       -11.0822   -1.2067   60.7896 C.ar    1  ZINC000190927708   -0.1300
     11 C11       -11.1857   -0.0280   61.5350 C.ar    1  ZINC000190927708   -0.0500
     12 C12       -10.3218    0.1971   62.5695 C.ar    1  ZINC000190927708   -0.1500
     13 C13        -9.3424   -0.7334   62.8870 C.ar    1  ZINC000190927708   -0.0600
     14 C14        -9.2215   -1.9018   62.1656 C.ar    1  ZINC000190927708   -0.1600
     15 C15       -10.0899   -2.1530   61.1087 C.ar    1  ZINC000190927708    0.1900
     16 N16        -9.9922   -3.3134   60.3707 N.am    1  ZINC000190927708   -0.6300
     17 C17       -10.8363   -3.5589   59.3532 C.2     1  ZINC000190927708    0.5500
     18 O18       -10.7206   -4.5953   58.7223 O.2     1  ZINC000190927708   -0.5300
     19 C19       -13.9643   -3.9154   55.4569 C.3     1  ZINC000190927708    0.1500
     20 H20       -14.4096   -3.6083   56.4033 H       1  ZINC000190927708    0.1400
     21 C21       -14.1229   -5.4274   55.2855 C.3     1  ZINC000190927708   -0.1300
     22 C22       -13.9807   -6.1127   56.6459 C.3     1  ZINC000190927708   -0.1500
     23 C23       -14.6570   -3.2057   54.3222 C.2     1  ZINC000190927708    0.4500
     24 O24       -15.1246   -2.1049   54.4939 O.2     1  ZINC000190927708   -0.5000
     25 O25       -14.7544   -3.7963   53.1209 O.3     1  ZINC000190927708   -0.3500
     26 C26       -15.6226   -3.1640   52.1438 C.3     1  ZINC000190927708    0.0600
     27 C27       -14.8502   -2.0658   51.4102 C.3     1  ZINC000190927708   -0.1500
     28 H28       -11.9693   -3.0562   51.5916 H       1  ZINC000190927708    0.0600
     29 H29       -11.0160   -1.5541   51.6509 H       1  ZINC000190927708    0.0600
     30 H30       -10.2471   -3.1120   52.0379 H       1  ZINC000190927708    0.0600
     31 H31       -10.7397   -1.8261   54.1000 H       1  ZINC000190927708    0.0800
     32 H32       -12.4619   -1.7702   53.6537 H       1  ZINC000190927708    0.0700
     33 H33       -12.2860   -4.3721   53.5312 H       1  ZINC000190927708    0.0900
     34 H34       -10.7866   -4.1635   54.4674 H       1  ZINC000190927708    0.0900
     35 H35       -13.4782   -2.1396   57.7110 H       1  ZINC000190927708    0.1100
     36 H36       -13.3019   -3.8794   58.0428 H       1  ZINC000190927708    0.1200
     37 H37       -12.7629   -0.7741   59.4061 H       1  ZINC000190927708    0.1400
     38 H38       -11.9450    0.7011   61.2941 H       1  ZINC000190927708    0.1400
     39 H39       -10.4017    1.1077   63.1449 H       1  ZINC000190927708    0.1300
     40 H40        -8.6674   -0.5399   63.7078 H       1  ZINC000190927708    0.1300
     41 H41        -8.4560   -2.6197   62.4207 H       1  ZINC000190927708    0.1300
     42 H42        -9.3073   -3.9640   60.5912 H       1  ZINC000190927708    0.4200
     43 H43       -15.1070   -5.6447   54.8702 H       1  ZINC000190927708    0.0900
     44 H44       -13.3531   -5.7991   54.6091 H       1  ZINC000190927708    0.0800
     45 H45       -14.0936   -7.1899   56.5238 H       1  ZINC000190927708    0.0600
     46 H46       -12.9966   -5.8954   57.0612 H       1  ZINC000190927708    0.0600
     47 H47       -14.7505   -5.7410   57.3222 H       1  ZINC000190927708    0.0600
     48 H48       -15.9648   -3.9093   51.4257 H       1  ZINC000190927708    0.0700
     49 H49       -16.4825   -2.7266   52.6511 H       1  ZINC000190927708    0.0700
     50 H50       -14.5081   -1.3205   52.1283 H       1  ZINC000190927708    0.0700
     51 H51       -13.9903   -2.5032   50.9029 H       1  ZINC000190927708    0.0700
     52 H52       -15.5021   -1.5912   50.6767 H       1  ZINC000190927708    0.0800
@<TRIPOS>BOND
     1     1     2    1
     2     1    28    1
     3     1    29    1
     4     1    30    1
     5     2     3    1
     6     2    31    1
     7     2    32    1
     8     3     4    1
     9     3    33    1
    10     3    34    1
    11     4     5   am
    12     4    19    1
    13     5     6    2
    14     5     7    1
    15     7     8    1
    16     7    35    1
    17     7    36    1
    18     8    17    1
    19     8     9    2
    20     9    10    1
    21     9    37    1
    22    10    15   ar
    23    10    11   ar
    24    11    12   ar
    25    11    38    1
    26    12    13   ar
    27    12    39    1
    28    13    14   ar
    29    13    40    1
    30    14    15   ar
    31    14    41    1
    32    15    16    1
    33    16    17   am
    34    16    42    1
    35    17    18    2
    36    19    20    1
    37    19    21    1
    38    19    23    1
    39    21    22    1
    40    21    43    1
    41    21    44    1
    42    22    45    1
    43    22    46    1
    44    22    47    1
    45    23    24    2
    46    23    25    1
    47    25    26    1
    48    26    27    1
    49    26    48    1
    50    26    49    1
    51    27    50    1
    52    27    51    1
    53    27    52    1
@<TRIPOS>SUBSTRUCTURE
     1 ZINC000190927708        1 TEMP              0 ****  ****    0 ROOT


##########                                Name:    ZINC000745364361
##########                DOCK_Rotatable_Bonds:                   8
##########                         Heavy_Atoms:                  29
##########                    Molecular_Weight:             398.434
##########                DOCK_Rotatable_Bonds:                   8
##########                       Formal_Charge:          0.00999923
##########                     HBond_Acceptors:                   7
##########                        HBond_Donors:                   1
##########                         Heavy_Atoms:                  29
##########                          Grid_Score:          -37.429764
##########                     Grid_vdw_energy:          -35.092224
##########                      Grid_es_energy:           -2.337538
##########           Internal_energy_repulsive:           13.162251

@<TRIPOS>MOLECULE
ZINC000745364361
 52 54 1 0 0
SMALL
USER_CHARGES


@<TRIPOS>ATOM
      1 C1        -14.7273   -5.5652   56.9968 C.3     1  ZINC000745364361   -0.1700
      2 C2        -13.3271   -5.0326   56.6858 C.3     1  ZINC000745364361    0.0700
      3 H3        -12.6645   -5.8664   56.4538 H       1  ZINC000745364361    0.1100
      4 O4        -12.8152   -4.3141   57.8391 O.3     1  ZINC000745364361   -0.3200
      5 C5        -11.4813   -4.2498   57.9743 C.2     1  ZINC000745364361    0.4700
      6 O6        -10.7647   -4.7388   57.1334 O.2     1  ZINC000745364361   -0.4900
      7 C7        -10.8777   -3.5676   59.1748 C.3     1  ZINC000745364361   -0.0400
      8 H8        -11.5495   -3.6697   60.0269 H       1  ZINC000745364361    0.1200
      9 C9         -9.5316   -4.2152   59.5061 C.3     1  ZINC000745364361   -0.1400
     10 C10       -10.6706   -2.1061   58.8707 C.ar    1  ZINC000745364361   -0.0500
     11 C11       -10.7568   -1.1705   59.8845 C.ar    1  ZINC000745364361   -0.1000
     12 C12       -10.5670    0.1706   59.6069 C.ar    1  ZINC000745364361   -0.0900
     13 C13       -10.2908    0.5772   58.3155 C.ar    1  ZINC000745364361   -0.1500
     14 C14       -10.2037   -0.3594   57.2991 C.ar    1  ZINC000745364361    0.1000
     15 F15        -9.9339    0.0369   56.0361 F       1  ZINC000745364361   -0.1400
     16 C16       -10.3888   -1.7024   57.5791 C.ar    1  ZINC000745364361   -0.1400
     17 C17       -13.3952   -4.1010   55.5032 C.2     1  ZINC000745364361    0.5200
     18 O18       -13.0618   -2.9411   55.6249 O.2     1  ZINC000745364361   -0.5000
     19 N19       -13.8267   -4.5566   54.3105 N.am    1  ZINC000745364361   -0.6700
     20 C20       -13.8900   -3.6906   53.2113 C.ar    1  ZINC000745364361    0.1200
     21 C21       -15.1013   -3.4729   52.5678 C.ar    1  ZINC000745364361   -0.1100
     22 C22       -15.1637   -2.6195   51.4845 C.ar    1  ZINC000745364361   -0.1400
     23 C23       -14.0154   -1.9785   51.0385 C.ar    1  ZINC000745364361    0.1500
     24 N24       -14.0787   -1.1129   49.9390 N.am    1  ZINC000745364361   -0.5600
     25 C25       -14.2887   -1.5484   48.5532 C.3     1  ZINC000745364361    0.0900
     26 C26       -14.7172   -0.2798   47.7830 C.3     1  ZINC000745364361   -0.1300
     27 C27       -14.0842    0.8394   48.6419 C.3     1  ZINC000745364361   -0.1500
     28 C28       -13.9607    0.2237   50.0182 C.2     1  ZINC000745364361    0.5200
     29 O29       -13.7749    0.8451   51.0432 O.2     1  ZINC000745364361   -0.5100
     30 C30       -12.8045   -2.1952   51.6828 C.ar    1  ZINC000745364361   -0.1400
     31 C31       -12.7428   -3.0456   52.7685 C.ar    1  ZINC000745364361   -0.0900
     32 H32       -14.6780   -6.2390   57.8522 H       1  ZINC000745364361    0.0800
     33 H33       -15.3899   -4.7313   57.2289 H       1  ZINC000745364361    0.0800
     34 H34       -15.1114   -6.1045   56.1311 H       1  ZINC000745364361    0.0800
     35 H35        -8.8597   -4.1129   58.6540 H       1  ZINC000745364361    0.0700
     36 H36        -9.0949   -3.7218   60.3744 H       1  ZINC000745364361    0.0800
     37 H37        -9.6814   -5.2722   59.7260 H       1  ZINC000745364361    0.0800
     38 H38       -10.9730   -1.4873   60.8940 H       1  ZINC000745364361    0.1300
     39 H39       -10.6350    0.9008   60.3998 H       1  ZINC000745364361    0.1400
     40 H40       -10.1433    1.6248   58.0989 H       1  ZINC000745364361    0.1400
     41 H41       -10.3208   -2.4338   56.7873 H       1  ZINC000745364361    0.1400
     42 H42       -14.0934   -5.4840   54.2132 H       1  ZINC000745364361    0.4100
     43 H43       -15.9944   -3.9714   52.9147 H       1  ZINC000745364361    0.1300
     44 H44       -16.1055   -2.4507   50.9837 H       1  ZINC000745364361    0.1600
     45 H45       -13.3626   -1.9467   48.1385 H       1  ZINC000745364361    0.0800
     46 H46       -15.0765   -2.3004   48.5094 H       1  ZINC000745364361    0.0900
     47 H47       -14.3045   -0.2780   46.7742 H       1  ZINC000745364361    0.1000
     48 H48       -15.8029   -0.1862   47.7589 H       1  ZINC000745364361    0.0900
     49 H49       -13.1033    1.1111   48.2518 H       1  ZINC000745364361    0.1100
     50 H50       -14.7377    1.7112   48.6743 H       1  ZINC000745364361    0.1100
     51 H51       -11.9115   -1.6965   51.3361 H       1  ZINC000745364361    0.1300
     52 H52       -11.8010   -3.2142   53.2695 H       1  ZINC000745364361    0.1400
@<TRIPOS>BOND
     1     1     2    1
     2     1    32    1
     3     1    33    1
     4     1    34    1
     5     2     3    1
     6     2     4    1
     7     2    17    1
     8     4     5    1
     9     5     6    2
    10     5     7    1
    11     7     8    1
    12     7     9    1
    13     7    10    1
    14     9    35    1
    15     9    36    1
    16     9    37    1
    17    10    16   ar
    18    10    11   ar
    19    11    12   ar
    20    11    38    1
    21    12    13   ar
    22    12    39    1
    23    13    14   ar
    24    13    40    1
    25    14    15    1
    26    14    16   ar
    27    16    41    1
    28    17    18    2
    29    17    19   am
    30    19    20    1
    31    19    42    1
    32    20    31   ar
    33    20    21   ar
    34    21    22   ar
    35    21    43    1
    36    22    23   ar
    37    22    44    1
    38    23    24    1
    39    23    30   ar
    40    24    28   am
    41    24    25    1
    42    25    26    1
    43    25    45    1
    44    25    46    1
    45    26    27    1
    46    26    47    1
    47    26    48    1
    48    27    28    1
    49    27    49    1
    50    27    50    1
    51    28    29    2
    52    30    31   ar
    53    30    51    1
    54    31    52    1
@<TRIPOS>SUBSTRUCTURE
     1 ZINC000745364361        1 TEMP              0 ****  ****    0 ROOT


##########                                Name:    ZINC001369071670
##########                DOCK_Rotatable_Bonds:                   8
##########                         Heavy_Atoms:                  24
##########                    Molecular_Weight:             335.366
##########                DOCK_Rotatable_Bonds:                   8
##########                       Formal_Charge:        -2.90573e-07
##########                     HBond_Acceptors:                  10
##########                        HBond_Donors:                   1
##########                         Heavy_Atoms:                  24
##########                          Grid_Score:          -37.427456
##########                     Grid_vdw_energy:          -37.577747
##########                      Grid_es_energy:            0.150290
##########           Internal_energy_repulsive:            5.988253

@<TRIPOS>MOLECULE
ZINC001369071670
 45 47 1 0 0
SMALL
USER_CHARGES


@<TRIPOS>ATOM
      1 C1         -5.6856    1.2163   50.9434 C.3     1  ZINC001369071670   -0.0800
      2 C2         -6.8555    0.3126   51.2364 C.2     1  ZINC001369071670    0.0000
      3 C3         -7.9558    0.6231   51.9594 C.2     1  ZINC001369071670   -0.2300
      4 C4         -8.7327   -0.5643   51.9276 C.2     1  ZINC001369071670    0.2100
      5 O5         -9.9408   -0.7630   52.5129 O.3     1  ZINC001369071670   -0.2600
      6 C6        -10.5105   -2.0685   52.3980 C.3     1  ZINC001369071670    0.0400
      7 C7        -11.7326   -2.1623   53.2747 C.2     1  ZINC001369071670    0.5200
      8 O8        -12.4652   -1.2036   53.3984 O.2     1  ZINC001369071670   -0.5100
      9 N9        -12.0117   -3.3114   53.9212 N.am    1  ZINC001369071670   -0.7200
     10 C10       -13.2008   -3.4031   54.7720 C.3     1  ZINC001369071670    0.1500
     11 H11       -13.5847   -2.4022   54.9690 H       1  ZINC001369071670    0.0900
     12 C12       -14.2740   -4.2302   54.0613 C.3     1  ZINC001369071670   -0.1700
     13 C13       -12.8307   -4.0768   56.0949 C.3     1  ZINC001369071670   -0.1200
     14 C14       -11.6075   -3.4502   56.7884 C.3     1  ZINC001369071670    0.0100
     15 N15       -12.3723   -3.5925   58.0471 N.3     1  ZINC001369071670   -0.4800
     16 C16       -12.2344   -2.3940   58.8853 C.3     1  ZINC001369071670    0.1000
     17 C17       -11.0175   -2.5325   59.7634 C.2     1  ZINC001369071670    0.1900
     18 N18       -10.3967   -3.6452   60.0705 N.2     1  ZINC001369071670   -0.3000
     19 N19        -9.4064   -3.3492   60.8397 N.2     1  ZINC001369071670   -0.0700
     20 N20        -9.3795   -2.0765   61.0313 N.2     1  ZINC001369071670   -0.0900
     21 N21       -10.3537   -1.5370   60.3798 N.pl3   1  ZINC001369071670   -0.3000
     22 C22       -10.6816   -0.1102   60.3284 C.3     1  ZINC001369071670    0.0800
     23 C23       -13.6479   -3.5714   57.2975 C.3     1  ZINC001369071670    0.0200
     24 N24        -8.0522   -1.4273   51.2218 N.2     1  ZINC001369071670   -0.4100
     25 O25        -7.0118   -0.9544   50.8266 O.3     1  ZINC001369071670    0.1000
     26 H26        -4.9580    0.6822   50.3323 H       1  ZINC001369071670    0.0900
     27 H27        -6.0336    2.0985   50.4059 H       1  ZINC001369071670    0.1000
     28 H28        -5.2191    1.5219   51.8799 H       1  ZINC001369071670    0.1000
     29 H29        -8.1891    1.5577   52.4476 H       1  ZINC001369071670    0.1800
     30 H30       -10.7922   -2.2521   51.3611 H       1  ZINC001369071670    0.1000
     31 H31        -9.7794   -2.8130   52.7131 H       1  ZINC001369071670    0.1000
     32 H32       -11.4252   -4.0778   53.8231 H       1  ZINC001369071670    0.4000
     33 H33       -14.5376   -3.7502   53.1188 H       1  ZINC001369071670    0.0600
     34 H34       -13.8901   -5.2311   53.8643 H       1  ZINC001369071670    0.0600
     35 H35       -15.1587   -4.2984   54.6943 H       1  ZINC001369071670    0.0700
     36 H36       -12.7859   -5.1633   56.0204 H       1  ZINC001369071670    0.1100
     37 H37       -10.7126   -4.0709   56.7458 H       1  ZINC001369071670    0.1000
     38 H38       -11.4227   -2.4149   56.5016 H       1  ZINC001369071670    0.0800
     39 H39       -12.1250   -1.5161   58.2487 H       1  ZINC001369071670    0.1000
     40 H40       -13.1215   -2.2825   59.5087 H       1  ZINC001369071670    0.0900
     41 H41       -10.1530    0.3544   59.4959 H       1  ZINC001369071670    0.1000
     42 H42       -11.7559    0.0111   60.1896 H       1  ZINC001369071670    0.1000
     43 H43       -10.3797    0.3659   61.2614 H       1  ZINC001369071670    0.1100
     44 H44       -14.0597   -2.5717   57.1596 H       1  ZINC001369071670    0.0800
     45 H45       -14.3831   -4.2890   57.6616 H       1  ZINC001369071670    0.1000
@<TRIPOS>BOND
     1     1     2    1
     2     1    26    1
     3     1    27    1
     4     1    28    1
     5     2    25    1
     6     2     3    2
     7     3     4    1
     8     3    29    1
     9     4     5    1
    10     4    24    2
    11     5     6    1
    12     6     7    1
    13     6    30    1
    14     6    31    1
    15     7     8    2
    16     7     9   am
    17     9    10    1
    18     9    32    1
    19    10    11    1
    20    10    12    1
    21    10    13    1
    22    12    33    1
    23    12    34    1
    24    12    35    1
    25    13    23    1
    26    13    14    1
    27    13    36    1
    28    14    15    1
    29    14    37    1
    30    14    38    1
    31    15    16    1
    32    15    23    1
    33    16    17    1
    34    16    39    1
    35    16    40    1
    36    17    21    1
    37    17    18    2
    38    18    19    1
    39    19    20    2
    40    20    21    1
    41    21    22    1
    42    22    41    1
    43    22    42    1
    44    22    43    1
    45    23    44    1
    46    23    45    1
    47    24    25    1
@<TRIPOS>SUBSTRUCTURE
     1 ZINC001369071670        1 TEMP              0 ****  ****    0 ROOT


##########                                Name:    ZINC000621594459
##########                DOCK_Rotatable_Bonds:                  10
##########                         Heavy_Atoms:                  25
##########                    Molecular_Weight:             389.497
##########                DOCK_Rotatable_Bonds:                  10
##########                       Formal_Charge:         -7.7486e-07
##########                     HBond_Acceptors:                  10
##########                        HBond_Donors:                   3
##########                         Heavy_Atoms:                  25
##########                          Grid_Score:          -37.426270
##########                     Grid_vdw_energy:          -37.424999
##########                      Grid_es_energy:           -0.001271
##########           Internal_energy_repulsive:            9.007474

@<TRIPOS>MOLECULE
ZINC000621594459
 48 49 1 0 0
SMALL
USER_CHARGES


@<TRIPOS>ATOM
      1 C1        -15.0353   -1.7465   50.1411 C.3     1  ZINC000621594459   -0.1600
      2 C2        -14.0793   -1.4504   51.2984 C.3     1  ZINC000621594459    0.1300
      3 C3        -14.8209   -0.6702   52.3857 C.3     1  ZINC000621594459   -0.1800
      4 N4        -13.5815   -2.7108   51.8551 N.am    1  ZINC000621594459   -1.1100
      5 S5        -12.0701   -2.7789   52.5283 S.o2    1  ZINC000621594459    2.6200
      6 O6        -11.1916   -2.5045   51.4456 O.2     1  ZINC000621594459   -0.9500
      7 O7        -12.1460   -1.9084   53.6488 O.2     1  ZINC000621594459   -0.9400
      8 C8        -11.8934   -4.5008   53.0708 C.3     1  ZINC000621594459   -0.6600
      9 C9        -13.0097   -4.8408   54.0605 C.3     1  ZINC000621594459    0.1300
     10 N10       -12.7620   -4.1540   55.3306 N.am    1  ZINC000621594459   -0.7200
     11 C11       -13.2727   -4.6493   56.4752 C.2     1  ZINC000621594459    0.5600
     12 O12       -13.9374   -5.6668   56.4540 O.2     1  ZINC000621594459   -0.5200
     13 C13       -13.0243   -3.9553   57.7569 C.ar    1  ZINC000621594459   -0.1500
     14 C14       -14.0933   -3.4551   58.5016 C.ar    1  ZINC000621594459   -0.0300
     15 C15       -13.8547   -2.8088   59.6971 C.ar    1  ZINC000621594459   -0.1400
     16 C16       -12.5591   -2.6557   60.1576 C.ar    1  ZINC000621594459    0.0100
     17 C17       -11.4947   -3.1489   59.4237 C.ar    1  ZINC000621594459   -0.6800
     18 S18        -9.8485   -2.9480   60.0189 S.o2    1  ZINC000621594459    2.7000
     19 O19        -9.9585   -2.4102   61.3296 O.2     1  ZINC000621594459   -0.9400
     20 O20        -9.1669   -4.1612   59.7313 O.2     1  ZINC000621594459   -0.9500
     21 N21        -9.1315   -1.7778   59.0920 N.am    1  ZINC000621594459   -1.0900
     22 C22        -9.6978   -0.4273   59.0503 C.3     1  ZINC000621594459    0.0800
     23 C23        -9.3263    0.4579   57.8590 C.3     1  ZINC000621594459   -0.1800
     24 C24       -10.7350   -0.1294   57.9656 C.3     1  ZINC000621594459   -0.1900
     25 C25       -11.7199   -3.8024   58.2300 C.ar    1  ZINC000621594459    0.0400
     26 H26       -15.4057   -0.8087   49.7269 H       1  ZINC000621594459    0.0700
     27 H27       -14.5070   -2.3023   49.3666 H       1  ZINC000621594459    0.0700
     28 H28       -15.8744   -2.3393   50.5054 H       1  ZINC000621594459    0.0600
     29 H29       -13.2403   -0.8577   50.9341 H       1  ZINC000621594459    0.0900
     30 H30       -15.6599   -1.2630   52.7501 H       1  ZINC000621594459    0.0700
     31 H31       -14.1399   -0.4595   53.2102 H       1  ZINC000621594459    0.0600
     32 H32       -15.1913    0.2675   51.9715 H       1  ZINC000621594459    0.0700
     33 H33       -14.1373   -3.5054   51.8295 H       1  ZINC000621594459    0.4200
     34 H34       -11.9597   -5.1625   52.2072 H       1  ZINC000621594459    0.1400
     35 H35       -10.9259   -4.6316   53.5555 H       1  ZINC000621594459    0.1400
     36 H36       -13.9675   -4.5170   53.6531 H       1  ZINC000621594459    0.0900
     37 H37       -13.0313   -5.9177   54.2279 H       1  ZINC000621594459    0.0900
     38 H38       -12.2305   -3.3428   55.3478 H       1  ZINC000621594459    0.4000
     39 H39       -15.1051   -3.5734   58.1430 H       1  ZINC000621594459    0.1300
     40 H40       -14.6810   -2.4213   60.2745 H       1  ZINC000621594459    0.1400
     41 H41       -12.3778   -2.1487   61.0937 H       1  ZINC000621594459    0.1500
     42 H42        -8.3366   -1.9866   58.5767 H       1  ZINC000621594459    0.4200
     43 H43        -9.8274    0.0582   60.0175 H       1  ZINC000621594459    0.1400
     44 H44        -9.2111    1.5263   58.0424 H       1  ZINC000621594459    0.1100
     45 H45        -8.6605    0.0356   57.1064 H       1  ZINC000621594459    0.1000
     46 H46       -10.9960   -0.9383   57.2831 H       1  ZINC000621594459    0.1000
     47 H47       -11.5467    0.5524   58.2191 H       1  ZINC000621594459    0.1000
     48 H48       -10.8884   -4.1872   57.6584 H       1  ZINC000621594459    0.1600
@<TRIPOS>BOND
     1     1     2    1
     2     1    26    1
     3     1    27    1
     4     1    28    1
     5     2     3    1
     6     2     4    1
     7     2    29    1
     8     3    30    1
     9     3    31    1
    10     3    32    1
    11     4     5   am
    12     4    33    1
    13     5     6    2
    14     5     7    2
    15     5     8    1
    16     8     9    1
    17     8    34    1
    18     8    35    1
    19     9    10    1
    20     9    36    1
    21     9    37    1
    22    10    11   am
    23    10    38    1
    24    11    12    2
    25    11    13    1
    26    13    25   ar
    27    13    14   ar
    28    14    15   ar
    29    14    39    1
    30    15    16   ar
    31    15    40    1
    32    16    17   ar
    33    16    41    1
    34    17    18    1
    35    17    25   ar
    36    18    19    2
    37    18    20    2
    38    18    21   am
    39    21    22    1
    40    21    42    1
    41    22    24    1
    42    22    23    1
    43    22    43    1
    44    23    24    1
    45    23    44    1
    46    23    45    1
    47    24    46    1
    48    24    47    1
    49    25    48    1
@<TRIPOS>SUBSTRUCTURE
     1 ZINC000621594459        1 TEMP              0 ****  ****    0 ROOT


##########                                Name:    ZINC000432058199
##########                DOCK_Rotatable_Bonds:                   5
##########                         Heavy_Atoms:                  30
##########                    Molecular_Weight:             406.441
##########                DOCK_Rotatable_Bonds:                   5
##########                       Formal_Charge:        -4.02331e-07
##########                     HBond_Acceptors:                   8
##########                        HBond_Donors:                   1
##########                         Heavy_Atoms:                  30
##########                          Grid_Score:          -37.348671
##########                     Grid_vdw_energy:          -37.107971
##########                      Grid_es_energy:           -0.240700
##########           Internal_energy_repulsive:           16.464197

@<TRIPOS>MOLECULE
ZINC000432058199
 52 55 1 0 0
SMALL
USER_CHARGES


@<TRIPOS>ATOM
      1 C1         -6.7073    0.6163   50.9773 C.3     1  ZINC000432058199    0.0300
      2 O2         -7.4458   -0.5696   51.2781 O.3     1  ZINC000432058199   -0.3100
      3 C3         -8.6594   -0.4077   51.8680 C.ar    1  ZINC000432058199    0.1300
      4 C4         -9.1713    0.8675   52.0636 C.ar    1  ZINC000432058199   -0.1900
      5 C5        -10.4053    1.0366   52.6633 C.ar    1  ZINC000432058199   -0.0800
      6 C6        -11.1352   -0.0618   53.0709 C.ar    1  ZINC000432058199   -0.1100
      7 C7        -10.6285   -1.3456   52.8778 C.ar    1  ZINC000432058199    0.0100
      8 C8        -11.4116   -2.5284   53.3148 C.2     1  ZINC000432058199    0.2100
      9 N9        -10.9593   -3.7457   53.4669 N.2     1  ZINC000432058199   -0.3700
     10 O10       -11.8525   -4.4794   53.8343 O.3     1  ZINC000432058199    0.1200
     11 C11       -12.9906   -3.7892   53.9566 C.2     1  ZINC000432058199    0.1600
     12 C12       -14.3266   -4.3356   54.3898 C.3     1  ZINC000432058199    0.2500
     13 H13       -14.3839   -5.3951   54.1406 H       1  ZINC000432058199    0.1500
     14 C14       -15.4447   -3.5807   53.6679 C.3     1  ZINC000432058199   -0.1700
     15 N15       -14.4778   -4.1654   55.8370 N.am    1  ZINC000432058199   -0.5800
     16 C16       -14.7020   -5.1693   56.6925 C.2     1  ZINC000432058199    0.7000
     17 O17       -14.8047   -6.3328   56.3567 O.2     1  ZINC000432058199   -0.5100
     18 N18       -14.8011   -4.7469   57.9658 N.am    1  ZINC000432058199   -0.7200
     19 C19       -14.6191   -3.2853   57.9404 C.3     1  ZINC000432058199    0.1400
     20 H20       -15.5108   -2.7813   58.3130 H       1  ZINC000432058199    0.1400
     21 C21       -13.4105   -2.8872   58.7478 C.ar    1  ZINC000432058199   -0.1000
     22 C22       -13.5060   -1.8699   59.6790 C.ar    1  ZINC000432058199   -0.1000
     23 C23       -12.3973   -1.5047   60.4196 C.ar    1  ZINC000432058199   -0.0800
     24 C24       -12.5012   -0.3955   61.4344 C.3     1  ZINC000432058199   -0.1200
     25 C25       -11.1936   -2.1573   60.2298 C.ar    1  ZINC000432058199   -0.1100
     26 C26       -11.0984   -3.1748   59.2988 C.ar    1  ZINC000432058199   -0.0800
     27 C27        -9.7860   -3.8860   59.0915 C.3     1  ZINC000432058199   -0.1200
     28 C28       -12.2080   -3.5429   58.5613 C.ar    1  ZINC000432058199   -0.1000
     29 C29       -14.4026   -2.9788   56.4717 C.2     1  ZINC000432058199    0.5300
     30 O30       -14.2081   -1.8918   55.9713 O.2     1  ZINC000432058199   -0.4500
     31 N31       -12.7249   -2.5474   53.6357 N.2     1  ZINC000432058199   -0.4500
     32 C32        -9.3879   -1.5158   52.2690 C.ar    1  ZINC000432058199   -0.1200
     33 H33        -5.7603    0.3460   50.5103 H       1  ZINC000432058199    0.1000
     34 H34        -7.2841    1.2401   50.2943 H       1  ZINC000432058199    0.0600
     35 H35        -6.5144    1.1675   51.8977 H       1  ZINC000432058199    0.0600
     36 H36        -8.6038    1.7299   51.7467 H       1  ZINC000432058199    0.1400
     37 H37       -10.7993    2.0309   52.8136 H       1  ZINC000432058199    0.1400
     38 H38       -12.0987    0.0737   53.5397 H       1  ZINC000432058199    0.1400
     39 H39       -15.3874   -2.5211   53.9171 H       1  ZINC000432058199    0.0900
     40 H40       -15.3322   -3.7073   52.5911 H       1  ZINC000432058199    0.0900
     41 H41       -16.4109   -3.9760   53.9813 H       1  ZINC000432058199    0.0900
     42 H42       -14.9616   -5.2974   58.7483 H       1  ZINC000432058199    0.4500
     43 H43       -14.4465   -1.3604   59.8276 H       1  ZINC000432058199    0.1200
     44 H44       -12.7831   -0.8127   62.4012 H       1  ZINC000432058199    0.0700
     45 H45       -11.5383    0.1076   61.5226 H       1  ZINC000432058199    0.0700
     46 H46       -13.2573    0.3210   61.1135 H       1  ZINC000432058199    0.0700
     47 H47       -10.3276   -1.8719   60.8083 H       1  ZINC000432058199    0.1300
     48 H48        -9.7265   -4.7420   59.7635 H       1  ZINC000432058199    0.0700
     49 H49        -9.7178   -4.2289   58.0591 H       1  ZINC000432058199    0.0700
     50 H50        -8.9644   -3.2011   59.3018 H       1  ZINC000432058199    0.0700
     51 H51       -12.1336   -4.3378   57.8340 H       1  ZINC000432058199    0.1300
     52 H52        -8.9910   -2.5087   52.1171 H       1  ZINC000432058199    0.1400
@<TRIPOS>BOND
     1     1     2    1
     2     1    33    1
     3     1    34    1
     4     1    35    1
     5     2     3    1
     6     3    32   ar
     7     3     4   ar
     8     4     5   ar
     9     4    36    1
    10     5     6   ar
    11     5    37    1
    12     6     7   ar
    13     6    38    1
    14     7     8    1
    15     7    32   ar
    16     8    31    1
    17     8     9    2
    18     9    10    1
    19    10    11    1
    20    11    12    1
    21    11    31    2
    22    12    13    1
    23    12    14    1
    24    12    15    1
    25    14    39    1
    26    14    40    1
    27    14    41    1
    28    15    29   am
    29    15    16   am
    30    16    17    2
    31    16    18   am
    32    18    19    1
    33    18    42    1
    34    19    20    1
    35    19    21    1
    36    19    29    1
    37    21    28   ar
    38    21    22   ar
    39    22    23   ar
    40    22    43    1
    41    23    24    1
    42    23    25   ar
    43    24    44    1
    44    24    45    1
    45    24    46    1
    46    25    26   ar
    47    25    47    1
    48    26    27    1
    49    26    28   ar
    50    27    48    1
    51    27    49    1
    52    27    50    1
    53    28    51    1
    54    29    30    2
    55    32    52    1
@<TRIPOS>SUBSTRUCTURE
     1 ZINC000432058199        1 TEMP              0 ****  ****    0 ROOT


##########                                Name:    ZINC001105793963
##########                DOCK_Rotatable_Bonds:                   9
##########                         Heavy_Atoms:                  24
##########                    Molecular_Weight:             337.422
##########                DOCK_Rotatable_Bonds:                   9
##########                       Formal_Charge:          -0.0100003
##########                     HBond_Acceptors:                   8
##########                        HBond_Donors:                   2
##########                         Heavy_Atoms:                  24
##########                          Grid_Score:          -37.280334
##########                     Grid_vdw_energy:          -35.989311
##########                      Grid_es_energy:           -1.291022
##########           Internal_energy_repulsive:            8.857969

@<TRIPOS>MOLECULE
ZINC001105793963
 51 52 1 0 0
SMALL
USER_CHARGES


@<TRIPOS>ATOM
      1 C1        -15.1035   -1.5969   47.7485 C.3     1  ZINC001105793963   -0.1500
      2 C2        -14.4467   -0.3439   48.3313 C.3     1  ZINC001105793963   -0.0300
      3 C3        -13.8827   -0.6593   49.6927 C.2     1  ZINC001105793963    0.1800
      4 N4        -13.4221   -1.8184   50.0975 N.2     1  ZINC001105793963   -0.4800
      5 C5        -13.0287   -1.6272   51.3695 C.2     1  ZINC001105793963    0.1700
      6 C6        -12.4236   -2.6634   52.2812 C.3     1  ZINC001105793963    0.1500
      7 N7        -13.4854   -3.2992   53.0727 N.3     1  ZINC001105793963   -0.6900
      8 C8        -12.9289   -4.3014   53.9913 C.3     1  ZINC001105793963    0.0700
      9 C9        -12.8190   -3.7019   55.3946 C.3     1  ZINC001105793963   -0.1000
     10 H10       -13.5308   -2.8850   55.5136 H       1  ZINC001105793963    0.1000
     11 C11       -11.3812   -3.2031   55.6541 C.3     1  ZINC001105793963    0.1100
     12 N12       -11.1263   -3.5216   57.0783 N.am    1  ZINC001105793963   -0.6200
     13 C13       -10.4744   -2.7722   57.9892 C.2     1  ZINC001105793963    0.5300
     14 O14       -10.0166   -1.6948   57.6724 O.2     1  ZINC001105793963   -0.5300
     15 C15       -10.3144   -3.2731   59.4015 C.3     1  ZINC001105793963    0.1300
     16 H16       -11.2256   -3.7850   59.7109 H       1  ZINC001105793963    0.1100
     17 C17        -9.1354   -4.2461   59.4671 C.3     1  ZINC001105793963   -0.1600
     18 N18       -10.0629   -2.1404   60.2959 N.am    1  ZINC001105793963   -0.7200
     19 C19       -11.0872   -1.5580   60.9502 C.2     1  ZINC001105793963    0.5200
     20 C20       -10.8289   -0.3917   61.8688 C.3     1  ZINC001105793963   -0.1700
     21 O21       -12.2169   -1.9727   60.7998 O.2     1  ZINC001105793963   -0.5500
     22 C22       -11.7506   -4.8509   57.2739 C.3     1  ZINC001105793963    0.1000
     23 C23       -13.0653   -4.7878   56.4625 C.3     1  ZINC001105793963   -0.1000
     24 H24       -13.2637   -5.7484   55.9872 H       1  ZINC001105793963    0.0900
     25 C25       -14.2322   -4.3936   57.3703 C.3     1  ZINC001105793963   -0.1500
     26 N26       -13.2659   -0.3849   51.6676 N.2     1  ZINC001105793963   -0.3700
     27 O27       -13.7511    0.1899   50.7160 O.3     1  ZINC001105793963    0.0800
     28 H28       -14.3599   -2.3887   47.6590 H       1  ZINC001105793963    0.0600
     29 H29       -15.9071   -1.9258   48.4074 H       1  ZINC001105793963    0.0600
     30 H30       -15.5116   -1.3687   46.7638 H       1  ZINC001105793963    0.0800
     31 H31       -13.6432   -0.0150   47.6723 H       1  ZINC001105793963    0.1100
     32 H32       -15.1904    0.4480   48.4207 H       1  ZINC001105793963    0.1000
     33 H33       -11.9133   -3.4191   51.6842 H       1  ZINC001105793963    0.1000
     34 H34       -11.7084   -2.1851   52.9506 H       1  ZINC001105793963    0.0700
     35 H35       -14.0251   -2.6095   53.5740 H       1  ZINC001105793963    0.3500
     36 H36       -13.5834   -5.1726   54.0184 H       1  ZINC001105793963    0.0800
     37 H37       -11.9394   -4.6012   53.6457 H       1  ZINC001105793963    0.0400
     38 H38       -10.6744   -3.7311   55.0141 H       1  ZINC001105793963    0.0700
     39 H39       -11.3161   -2.1278   55.4876 H       1  ZINC001105793963    0.0900
     40 H40        -9.0196   -4.6084   60.4886 H       1  ZINC001105793963    0.0800
     41 H41        -9.3225   -5.0889   58.8016 H       1  ZINC001105793963    0.0800
     42 H42        -8.2242   -3.7342   59.1576 H       1  ZINC001105793963    0.0600
     43 H43        -9.1592   -1.8095   60.4171 H       1  ZINC001105793963    0.4100
     44 H44        -9.7629   -0.1639   61.8759 H       1  ZINC001105793963    0.0800
     45 H45       -11.3838    0.4779   61.5167 H       1  ZINC001105793963    0.1000
     46 H46       -11.1528   -0.6453   62.8781 H       1  ZINC001105793963    0.1000
     47 H47       -11.1014   -5.6363   56.8869 H       1  ZINC001105793963    0.0800
     48 H48       -11.9641   -5.0188   58.3295 H       1  ZINC001105793963    0.0900
     49 H49       -14.0255   -3.4263   57.8283 H       1  ZINC001105793963    0.0600
     50 H50       -15.1460   -4.3282   56.7798 H       1  ZINC001105793963    0.0600
     51 H51       -14.3562   -5.1454   58.1497 H       1  ZINC001105793963    0.0600
@<TRIPOS>BOND
     1     1     2    1
     2     1    28    1
     3     1    29    1
     4     1    30    1
     5     2     3    1
     6     2    31    1
     7     2    32    1
     8     3    27    1
     9     3     4    2
    10     4     5    1
    11     5     6    1
    12     5    26    2
    13     6     7    1
    14     6    33    1
    15     6    34    1
    16     7     8    1
    17     7    35    1
    18     8     9    1
    19     8    36    1
    20     8    37    1
    21     9    10    1
    22     9    23    1
    23     9    11    1
    24    11    12    1
    25    11    38    1
    26    11    39    1
    27    12    13   am
    28    12    22    1
    29    13    14    2
    30    13    15    1
    31    15    16    1
    32    15    17    1
    33    15    18    1
    34    17    40    1
    35    17    41    1
    36    17    42    1
    37    18    19   am
    38    18    43    1
    39    19    20    1
    40    19    21    2
    41    20    44    1
    42    20    45    1
    43    20    46    1
    44    22    23    1
    45    22    47    1
    46    22    48    1
    47    23    24    1
    48    23    25    1
    49    25    49    1
    50    25    50    1
    51    25    51    1
    52    26    27    1
@<TRIPOS>SUBSTRUCTURE
     1 ZINC001105793963        1 TEMP              0 ****  ****    0 ROOT


##########                                Name:    ZINC000489403631
##########                DOCK_Rotatable_Bonds:                   7
##########                         Heavy_Atoms:                  28
##########                    Molecular_Weight:             381.391
##########                DOCK_Rotatable_Bonds:                   7
##########                       Formal_Charge:          -0.0300003
##########                     HBond_Acceptors:                   9
##########                        HBond_Donors:                   1
##########                         Heavy_Atoms:                  28
##########                          Grid_Score:          -37.258423
##########                     Grid_vdw_energy:          -37.246727
##########                      Grid_es_energy:           -0.011696
##########           Internal_energy_repulsive:           11.722577

@<TRIPOS>MOLECULE
ZINC000489403631
 47 49 1 0 0
SMALL
USER_CHARGES


@<TRIPOS>ATOM
      1 C1         -9.8046   -3.4857   59.5407 C.3     1  ZINC000489403631   -0.1100
      2 C2         -9.9998   -2.1353   58.9011 C.ar    1  ZINC000489403631   -0.0800
      3 C3        -10.3212   -2.0461   57.5615 C.ar    1  ZINC000489403631   -0.0900
      4 C4        -10.5010   -0.8015   56.9721 C.ar    1  ZINC000489403631    0.1200
      5 N5        -10.8276   -0.7104   55.6129 N.am    1  ZINC000489403631   -0.6600
      6 C6        -10.0079   -0.0578   54.7652 C.2     1  ZINC000489403631    0.5100
      7 O7         -8.9875    0.4507   55.1791 O.2     1  ZINC000489403631   -0.4600
      8 C8        -10.3592    0.0401   53.3029 C.3     1  ZINC000489403631    0.1700
      9 C9        -11.3134   -1.0964   52.9304 C.3     1  ZINC000489403631   -0.1700
     10 C10       -11.0363    1.3847   53.0300 C.3     1  ZINC000489403631   -0.1700
     11 N11        -9.1386   -0.0639   52.4994 N.pl3   1  ZINC000489403631   -0.3400
     12 C12        -8.3337    0.9586   52.1422 C.2     1  ZINC000489403631    0.1500
     13 C13        -7.3191    0.4476   51.4071 C.2     1  ZINC000489403631   -0.1900
     14 N14        -6.2034    1.2155   50.8101 N.pl3   1  ZINC000489403631    0.0700
     15 O15        -6.1428    2.4220   50.9654 O.2     1  ZINC000489403631   -0.1700
     16 O16        -5.3460    0.6408   50.1634 O.2     1  ZINC000489403631   -0.1600
     17 C17        -7.5105   -0.9347   51.3117 C.2     1  ZINC000489403631    0.1000
     18 N18        -8.5976   -1.2432   51.9713 N.2     1  ZINC000489403631   -0.2200
     19 C19       -10.3575    0.3524   57.7307 C.ar    1  ZINC000489403631   -0.1100
     20 C20       -10.0360    0.2619   59.0707 C.ar    1  ZINC000489403631   -0.1700
     21 C21        -9.8621   -0.9818   59.6601 C.ar    1  ZINC000489403631    0.1000
     22 O22        -9.5456   -1.0703   60.9794 O.3     1  ZINC000489403631   -0.2500
     23 C23       -10.4597   -0.6372   61.8843 C.ar    1  ZINC000489403631    0.1400
     24 C24       -11.8015   -0.9935   61.7706 C.ar    1  ZINC000489403631   -0.2000
     25 C25       -12.6998   -0.5328   62.7110 C.ar    1  ZINC000489403631    0.1200
     26 N26       -12.3014    0.2353   63.7075 N.ar    1  ZINC000489403631   -0.4900
     27 C27       -11.0394    0.5942   63.8491 C.ar    1  ZINC000489403631    0.1200
     28 C28       -10.0791    0.1701   62.9537 C.ar    1  ZINC000489403631   -0.1800
     29 H29       -10.7578   -3.8454   59.9282 H       1  ZINC000489403631    0.0700
     30 H30        -9.4260   -4.1882   58.7982 H       1  ZINC000489403631    0.0700
     31 H31        -9.0889   -3.4005   60.3584 H       1  ZINC000489403631    0.0700
     32 H32       -10.4323   -2.9441   56.9717 H       1  ZINC000489403631    0.1500
     33 H33       -11.6436   -1.1171   55.2819 H       1  ZINC000489403631    0.4100
     34 H34       -12.2216   -1.0190   53.5283 H       1  ZINC000489403631    0.1000
     35 H35       -11.5675   -1.0255   51.8728 H       1  ZINC000489403631    0.0900
     36 H36       -10.8309   -2.0543   53.1248 H       1  ZINC000489403631    0.0800
     37 H37       -10.3566    2.1944   53.2954 H       1  ZINC000489403631    0.0800
     38 H38       -11.2904    1.4555   51.9724 H       1  ZINC000489403631    0.0900
     39 H39       -11.9445    1.4620   53.6279 H       1  ZINC000489403631    0.0900
     40 H40        -8.4744    1.9987   52.3971 H       1  ZINC000489403631    0.2000
     41 H41        -6.8691   -1.6282   50.7883 H       1  ZINC000489403631    0.2100
     42 H42       -10.4969    1.3205   57.2729 H       1  ZINC000489403631    0.1300
     43 H43        -9.9244    1.1594   59.6609 H       1  ZINC000489403631    0.1300
     44 H44       -12.1341   -1.6214   60.9574 H       1  ZINC000489403631    0.1400
     45 H45       -13.7421   -0.8038   62.6304 H       1  ZINC000489403631    0.1600
     46 H46       -10.7540    1.2243   64.6785 H       1  ZINC000489403631    0.1700
     47 H47        -9.0479    0.4671   63.0755 H       1  ZINC000489403631    0.1500
@<TRIPOS>BOND
     1     1     2    1
     2     1    29    1
     3     1    30    1
     4     1    31    1
     5     2    21   ar
     6     2     3   ar
     7     3     4   ar
     8     3    32    1
     9     4     5    1
    10     4    19   ar
    11     5     6   am
    12     5    33    1
    13     6     7    2
    14     6     8    1
    15     8     9    1
    16     8    10    1
    17     8    11    1
    18     9    34    1
    19     9    35    1
    20     9    36    1
    21    10    37    1
    22    10    38    1
    23    10    39    1
    24    11    18    1
    25    11    12    1
    26    12    13    2
    27    12    40    1
    28    13    14    1
    29    13    17    1
    30    14    15    2
    31    14    16    2
    32    17    18    2
    33    17    41    1
    34    19    20   ar
    35    19    42    1
    36    20    21   ar
    37    20    43    1
    38    21    22    1
    39    22    23    1
    40    23    28   ar
    41    23    24   ar
    42    24    25   ar
    43    24    44    1
    44    25    26   ar
    45    25    45    1
    46    26    27   ar
    47    27    28   ar
    48    27    46    1
    49    28    47    1
@<TRIPOS>SUBSTRUCTURE
     1 ZINC000489403631        1 TEMP              0 ****  ****    0 ROOT


##########                                Name:    ZINC000437192871
##########                DOCK_Rotatable_Bonds:                   9
##########                         Heavy_Atoms:                  28
##########                    Molecular_Weight:             423.298
##########                DOCK_Rotatable_Bonds:                   9
##########                       Formal_Charge:         -8.9407e-08
##########                     HBond_Acceptors:                   9
##########                        HBond_Donors:                   1
##########                         Heavy_Atoms:                  28
##########                          Grid_Score:          -37.208134
##########                     Grid_vdw_energy:          -34.610813
##########                      Grid_es_energy:           -2.597320
##########           Internal_energy_repulsive:           14.310523

@<TRIPOS>MOLECULE
ZINC000437192871
 48 50 1 0 0
SMALL
USER_CHARGES


@<TRIPOS>ATOM
      1 C1        -10.5105    1.5312   63.4985 C.3     1  ZINC000437192871   -0.1700
      2 C2        -11.1867    0.1822   63.7518 C.3     1  ZINC000437192871    0.1300
      3 N3        -11.9923   -0.1869   62.5851 N.pl3   1  ZINC000437192871   -0.3600
      4 C4        -11.5496   -0.8355   61.4877 C.2     1  ZINC000437192871    0.0700
      5 C5        -12.5982   -0.9846   60.6456 C.2     1  ZINC000437192871   -0.2700
      6 C6        -12.5635   -1.6550   59.2964 C.3     1  ZINC000437192871    0.1900
      7 N7        -11.5054   -1.0549   58.4800 N.am    1  ZINC000437192871   -0.6000
      8 C8        -11.4596    0.3973   58.2925 C.3     1  ZINC000437192871    0.1100
      9 C9        -10.2550    0.9705   59.0419 C.3     1  ZINC000437192871    0.0600
     10 O10        -9.2655    1.3925   58.1013 O.3     1  ZINC000437192871   -0.5600
     11 C11       -10.5741   -1.8388   57.9016 C.2     1  ZINC000437192871    0.6000
     12 O12        -9.6958   -1.3407   57.2237 O.2     1  ZINC000437192871   -0.5000
     13 C13       -10.6202   -3.2987   58.0902 C.2     1  ZINC000437192871   -0.2200
     14 C14        -9.9923   -4.0584   59.0447 C.2     1  ZINC000437192871    0.0100
     15 C15        -9.0903   -3.5591   60.1439 C.3     1  ZINC000437192871   -0.0800
     16 O16       -10.3372   -5.3264   58.8094 O.3     1  ZINC000437192871    0.1100
     17 N17       -11.0749   -5.4546   57.8634 N.2     1  ZINC000437192871   -0.3200
     18 C18       -11.3597   -4.3069   57.3020 C.2     1  ZINC000437192871    0.0800
     19 C19       -12.2291   -4.0704   56.1244 C.ar    1  ZINC000437192871   -0.0200
     20 C20       -11.6669   -3.7079   54.9017 C.ar    1  ZINC000437192871   -0.0700
     21 C21       -12.4801   -3.4894   53.8086 C.ar    1  ZINC000437192871   -0.1000
     22 C22       -13.8527   -3.6297   53.9240 C.ar    1  ZINC000437192871   -0.0100
     23 Cl23      -14.8694   -3.3536   52.5441 Cl      1  ZINC000437192871   -0.0500
     24 C24       -14.4173   -3.9895   55.1357 C.ar    1  ZINC000437192871   -0.1100
     25 C25       -13.6124   -4.2158   56.2347 C.ar    1  ZINC000437192871    0.0000
     26 Cl26      -14.3210   -4.6676   57.7537 Cl      1  ZINC000437192871   -0.0300
     27 C27       -13.7203   -0.4073   61.2491 C.2     1  ZINC000437192871    0.0600
     28 N28       -13.3595    0.0659   62.4144 N.2     1  ZINC000437192871   -0.2900
     29 H29        -9.9111    1.8058   64.3664 H       1  ZINC000437192871    0.0800
     30 H30        -9.8672    1.4562   62.6217 H       1  ZINC000437192871    0.0600
     31 H31       -11.2715    2.2925   63.3268 H       1  ZINC000437192871    0.0700
     32 H32       -10.4257   -0.5791   63.9235 H       1  ZINC000437192871    0.1000
     33 H33       -11.8300    0.2572   64.6285 H       1  ZINC000437192871    0.0900
     34 H34       -10.5393   -1.1747   61.3128 H       1  ZINC000437192871    0.1600
     35 H35       -12.3643   -2.7190   59.4244 H       1  ZINC000437192871    0.0900
     36 H36       -13.5248   -1.5225   58.8000 H       1  ZINC000437192871    0.0800
     37 H37       -11.3679    0.6238   57.2302 H       1  ZINC000437192871    0.1000
     38 H38       -12.3751    0.8430   58.6814 H       1  ZINC000437192871    0.1000
     39 H39       -10.5727    1.8231   59.6422 H       1  ZINC000437192871    0.0600
     40 H40        -9.8341    0.2044   59.6931 H       1  ZINC000437192871    0.0500
     41 H41        -8.4747    1.7738   58.5067 H       1  ZINC000437192871    0.3800
     42 H42        -9.6715   -3.4194   61.0554 H       1  ZINC000437192871    0.1000
     43 H43        -8.3003   -4.2879   60.3248 H       1  ZINC000437192871    0.0900
     44 H44        -8.6470   -2.6088   59.8465 H       1  ZINC000437192871    0.0900
     45 H45       -10.5965   -3.5978   54.8101 H       1  ZINC000437192871    0.1600
     46 H46       -12.0450   -3.2081   52.8609 H       1  ZINC000437192871    0.1500
     47 H47       -15.4885   -4.0976   55.2205 H       1  ZINC000437192871    0.1500
     48 H48       -14.7138   -0.3640   60.8280 H       1  ZINC000437192871    0.1800
@<TRIPOS>BOND
     1     1     2    1
     2     1    29    1
     3     1    30    1
     4     1    31    1
     5     2     3    1
     6     2    32    1
     7     2    33    1
     8     3    28    1
     9     3     4    1
    10     4     5    2
    11     4    34    1
    12     5     6    1
    13     5    27    1
    14     6     7    1
    15     6    35    1
    16     6    36    1
    17     7     8    1
    18     7    11   am
    19     8     9    1
    20     8    37    1
    21     8    38    1
    22     9    10    1
    23     9    39    1
    24     9    40    1
    25    10    41    1
    26    11    12    2
    27    11    13    1
    28    13    18    1
    29    13    14    2
    30    14    15    1
    31    14    16    1
    32    15    42    1
    33    15    43    1
    34    15    44    1
    35    16    17    1
    36    17    18    2
    37    18    19    1
    38    19    25   ar
    39    19    20   ar
    40    20    21   ar
    41    20    45    1
    42    21    22   ar
    43    21    46    1
    44    22    23    1
    45    22    24   ar
    46    24    25   ar
    47    24    47    1
    48    25    26    1
    49    27    28    2
    50    27    48    1
@<TRIPOS>SUBSTRUCTURE
     1 ZINC000437192871        1 TEMP              0 ****  ****    0 ROOT


##########                                Name:    ZINC000504860563
##########                DOCK_Rotatable_Bonds:                   6
##########                         Heavy_Atoms:                  25
##########                    Molecular_Weight:             370.786
##########                DOCK_Rotatable_Bonds:                   6
##########                       Formal_Charge:                0.01
##########                     HBond_Acceptors:                   9
##########                        HBond_Donors:                   0
##########                         Heavy_Atoms:                  25
##########                          Grid_Score:          -37.186150
##########                     Grid_vdw_energy:          -36.658253
##########                      Grid_es_energy:           -0.527898
##########           Internal_energy_repulsive:           18.902157

@<TRIPOS>MOLECULE
ZINC000504860563
 42 44 1 0 0
SMALL
USER_CHARGES


@<TRIPOS>ATOM
      1 O1        -11.0442   -5.6968   57.9043 O.2     1  ZINC000504860563   -0.5100
      2 C2        -11.0507   -4.5362   57.5432 C.2     1  ZINC000504860563    0.5700
      3 C3        -11.9099   -4.1178   56.4152 C.ar    1  ZINC000504860563    0.0500
      4 N4        -11.3577   -3.6213   55.3139 N.ar    1  ZINC000504860563   -0.4100
      5 C5        -12.0854   -3.2383   54.2890 C.ar    1  ZINC000504860563    0.0600
      6 C6        -13.4688   -3.3377   54.3162 C.ar    1  ZINC000504860563   -0.1000
      7 C7        -14.0919   -3.8485   55.4408 C.ar    1  ZINC000504860563   -0.1700
      8 C8        -13.2992   -4.2529   56.5125 C.ar    1  ZINC000504860563    0.1400
      9 O9        -13.8654   -4.7602   57.6360 O.3     1  ZINC000504860563   -0.2600
     10 C10       -14.9785   -4.0480   58.1799 C.3     1  ZINC000504860563   -0.0100
     11 C11       -14.4758   -2.8176   58.9376 C.3     1  ZINC000504860563    0.2800
     12 F12       -13.8700   -1.9322   58.0394 F       1  ZINC000504860563   -0.1900
     13 F13       -15.5540   -2.1822   59.5629 F       1  ZINC000504860563   -0.1900
     14 N14       -10.2787   -3.6296   58.1746 N.am    1  ZINC000504860563   -0.6000
     15 C15       -10.2847   -2.2209   57.7573 C.3     1  ZINC000504860563    0.0800
     16 C16       -10.5805   -1.3459   58.9795 C.3     1  ZINC000504860563   -0.1500
     17 C17        -9.5760   -1.6688   60.0880 C.3     1  ZINC000504860563    0.1600
     18 N18        -9.8350   -0.8105   61.2466 N.pl3   1  ZINC000504860563   -0.3600
     19 C19        -9.3329   -0.9795   62.4887 C.2     1  ZINC000504860563    0.0700
     20 C20        -9.8098    0.0210   63.2659 C.2     1  ZINC000504860563   -0.1900
     21 Cl21       -9.4634    0.2602   64.9501 Cl      1  ZINC000504860563   -0.0400
     22 C22       -10.6312    0.8287   62.4715 C.2     1  ZINC000504860563    0.0600
     23 N23       -10.6427    0.3341   61.2601 N.2     1  ZINC000504860563   -0.2800
     24 C24        -9.7203   -3.1362   60.4981 C.3     1  ZINC000504860563   -0.1400
     25 C25        -9.4195   -4.0302   59.2971 C.3     1  ZINC000504860563    0.1200
     26 H26       -11.5987   -2.8392   53.4114 H       1  ZINC000504860563    0.1700
     27 H27       -14.0545   -3.0187   53.4668 H       1  ZINC000504860563    0.1500
     28 H28       -15.1676   -3.9355   55.4852 H       1  ZINC000504860563    0.1500
     29 H29       -15.6381   -3.7324   57.3714 H       1  ZINC000504860563    0.1000
     30 H30       -15.5263   -4.6969   58.8633 H       1  ZINC000504860563    0.1000
     31 H31       -13.7496   -3.1256   59.6897 H       1  ZINC000504860563    0.1300
     32 H32        -9.3103   -1.9573   57.3463 H       1  ZINC000504860563    0.0700
     33 H33       -11.0558   -2.0667   57.0024 H       1  ZINC000504860563    0.1600
     34 H34       -10.4931   -0.2949   58.7042 H       1  ZINC000504860563    0.0900
     35 H35       -11.5912   -1.5467   59.3348 H       1  ZINC000504860563    0.0700
     36 H36        -8.5639   -1.4916   59.7238 H       1  ZINC000504860563    0.1100
     37 H37        -8.6702   -1.7713   62.8054 H       1  ZINC000504860563    0.1800
     38 H38       -11.1614    1.7103   62.8005 H       1  ZINC000504860563    0.1900
     39 H39        -9.0208   -3.3592   61.3037 H       1  ZINC000504860563    0.0900
     40 H40       -10.7391   -3.3201   60.8390 H       1  ZINC000504860563    0.0800
     41 H41        -9.6169   -5.0701   59.5571 H       1  ZINC000504860563    0.1000
     42 H42        -8.3745   -3.9156   59.0088 H       1  ZINC000504860563    0.0800
@<TRIPOS>BOND
     1     1     2    2
     2     2     3    1
     3     2    14   am
     4     3     8   ar
     5     3     4   ar
     6     4     5   ar
     7     5     6   ar
     8     5    26    1
     9     6     7   ar
    10     6    27    1
    11     7     8   ar
    12     7    28    1
    13     8     9    1
    14     9    10    1
    15    10    11    1
    16    10    29    1
    17    10    30    1
    18    11    12    1
    19    11    13    1
    20    11    31    1
    21    14    25    1
    22    14    15    1
    23    15    16    1
    24    15    32    1
    25    15    33    1
    26    16    17    1
    27    16    34    1
    28    16    35    1
    29    17    18    1
    30    17    24    1
    31    17    36    1
    32    18    23    1
    33    18    19    1
    34    19    20    2
    35    19    37    1
    36    20    21    1
    37    20    22    1
    38    22    23    2
    39    22    38    1
    40    24    25    1
    41    24    39    1
    42    24    40    1
    43    25    41    1
    44    25    42    1
@<TRIPOS>SUBSTRUCTURE
     1 ZINC000504860563        1 TEMP              0 ****  ****    0 ROOT


##########                                Name:    ZINC000050607728
##########                DOCK_Rotatable_Bonds:                  10
##########                         Heavy_Atoms:                  31
##########                    Molecular_Weight:             416.476
##########                DOCK_Rotatable_Bonds:                  10
##########                       Formal_Charge:          -0.0199995
##########                     HBond_Acceptors:                   6
##########                        HBond_Donors:                   1
##########                         Heavy_Atoms:                  31
##########                          Grid_Score:          -37.157448
##########                     Grid_vdw_energy:          -38.000652
##########                      Grid_es_energy:            0.843206
##########           Internal_energy_repulsive:           12.092980

@<TRIPOS>MOLECULE
ZINC000050607728
 55 57 1 0 0
SMALL
USER_CHARGES


@<TRIPOS>ATOM
      1 C1        -11.9831    1.3384   61.4238 C.3     1  ZINC000050607728    0.0800
      2 N2        -11.8003   -0.0332   60.9426 N.am    1  ZINC000050607728   -0.6200
      3 C3        -12.6507   -1.1094   61.4572 C.3     1  ZINC000050607728    0.0700
      4 C4        -10.8498   -0.3049   60.0265 C.2     1  ZINC000050607728    0.5600
      5 O5        -10.1443    0.5880   59.5995 O.2     1  ZINC000050607728   -0.5300
      6 C6        -10.6654   -1.6890   59.5409 C.ar    1  ZINC000050607728   -0.1400
      7 C7         -9.8506   -2.5763   60.2456 C.ar    1  ZINC000050607728   -0.0800
      8 C8         -9.6830   -3.8668   59.7873 C.ar    1  ZINC000050607728   -0.1300
      9 C9        -10.3201   -4.2818   58.6316 C.ar    1  ZINC000050607728   -0.0700
     10 C10       -11.1289   -3.4070   57.9278 C.ar    1  ZINC000050607728   -0.1100
     11 C11       -11.8187   -3.8675   56.6695 C.3     1  ZINC000050607728    0.1100
     12 O12       -11.1414   -3.3077   55.5136 O.3     1  ZINC000050607728   -0.3400
     13 C13       -11.8695   -3.1526   54.3967 C.2     1  ZINC000050607728    0.4700
     14 O14       -12.4667   -4.0933   53.9293 O.2     1  ZINC000050607728   -0.5000
     15 C15       -11.9419   -1.8053   53.7254 C.3     1  ZINC000050607728    0.2000
     16 H16       -12.0570   -1.0285   54.4813 H       1  ZINC000050607728    0.1400
     17 N17       -10.7103   -1.5705   52.9675 N.am    1  ZINC000050607728   -0.7100
     18 C18       -10.2224   -0.3202   52.8452 C.2     1  ZINC000050607728    0.5700
     19 O19       -10.8031    0.6125   53.3651 O.2     1  ZINC000050607728   -0.5200
     20 C20        -8.9805   -0.0830   52.0788 C.ar    1  ZINC000050607728   -0.1400
     21 C21        -8.3469   -1.1415   51.4257 C.ar    1  ZINC000050607728   -0.0800
     22 C22        -7.1886   -0.9133   50.7119 C.ar    1  ZINC000050607728   -0.1300
     23 C23        -6.6547    0.3612   50.6427 C.ar    1  ZINC000050607728   -0.0900
     24 C24        -7.2776    1.4147   51.2881 C.ar    1  ZINC000050607728   -0.1300
     25 C25        -8.4397    1.2013   52.0002 C.ar    1  ZINC000050607728   -0.0600
     26 C26       -13.1220   -1.7735   52.7888 C.ar    1  ZINC000050607728   -0.1000
     27 C27       -14.3489   -1.3220   53.2379 C.ar    1  ZINC000050607728   -0.1000
     28 C28       -15.4314   -1.2928   52.3787 C.ar    1  ZINC000050607728   -0.1200
     29 C29       -15.2869   -1.7148   51.0703 C.ar    1  ZINC000050607728   -0.1100
     30 C30       -14.0597   -2.1655   50.6209 C.ar    1  ZINC000050607728   -0.1200
     31 C31       -12.9762   -2.1906   51.4789 C.ar    1  ZINC000050607728   -0.0800
     32 C32       -11.3098   -2.1160   58.3786 C.ar    1  ZINC000050607728   -0.0400
     33 H33       -11.3518    1.5044   62.2968 H       1  ZINC000050607728    0.0600
     34 H34       -11.7061    2.0397   60.6366 H       1  ZINC000050607728    0.0800
     35 H35       -13.0273    1.4919   61.6961 H       1  ZINC000050607728    0.0700
     36 H36       -13.5769   -1.1463   60.8837 H       1  ZINC000050607728    0.0600
     37 H37       -12.1279   -2.0614   61.3647 H       1  ZINC000050607728    0.0800
     38 H38       -12.8800   -0.9213   62.5061 H       1  ZINC000050607728    0.0700
     39 H39        -9.3521   -2.2533   61.1477 H       1  ZINC000050607728    0.1400
     40 H40        -9.0527   -4.5545   60.3317 H       1  ZINC000050607728    0.1400
     41 H41       -10.1853   -5.2929   58.2768 H       1  ZINC000050607728    0.1300
     42 H42       -11.7888   -4.9558   56.6163 H       1  ZINC000050607728    0.0900
     43 H43       -12.8559   -3.5326   56.6804 H       1  ZINC000050607728    0.0900
     44 H44       -10.2462   -2.3149   52.5536 H       1  ZINC000050607728    0.4100
     45 H45        -8.7623   -2.1370   51.4795 H       1  ZINC000050607728    0.1300
     46 H46        -6.6974   -1.7314   50.2061 H       1  ZINC000050607728    0.1300
     47 H47        -5.7476    0.5344   50.0828 H       1  ZINC000050607728    0.1300
     48 H48        -6.8555    2.4071   51.2306 H       1  ZINC000050607728    0.1300
     49 H49        -8.9251    2.0246   52.5033 H       1  ZINC000050607728    0.1400
     50 H50       -14.4617   -0.9923   54.2601 H       1  ZINC000050607728    0.1200
     51 H51       -16.3901   -0.9406   52.7297 H       1  ZINC000050607728    0.1200
     52 H52       -16.1328   -1.6926   50.3992 H       1  ZINC000050607728    0.1200
     53 H53       -13.9469   -2.4955   49.5987 H       1  ZINC000050607728    0.1300
     54 H54       -12.0175   -2.5428   51.1279 H       1  ZINC000050607728    0.1300
     55 H55       -11.9417   -1.4342   57.8286 H       1  ZINC000050607728    0.1300
@<TRIPOS>BOND
     1     1     2    1
     2     1    33    1
     3     1    34    1
     4     1    35    1
     5     2     3    1
     6     2     4   am
     7     3    36    1
     8     3    37    1
     9     3    38    1
    10     4     5    2
    11     4     6    1
    12     6    32   ar
    13     6     7   ar
    14     7     8   ar
    15     7    39    1
    16     8     9   ar
    17     8    40    1
    18     9    10   ar
    19     9    41    1
    20    10    11    1
    21    10    32   ar
    22    11    12    1
    23    11    42    1
    24    11    43    1
    25    12    13    1
    26    13    14    2
    27    13    15    1
    28    15    16    1
    29    15    17    1
    30    15    26    1
    31    17    18   am
    32    17    44    1
    33    18    19    2
    34    18    20    1
    35    20    25   ar
    36    20    21   ar
    37    21    22   ar
    38    21    45    1
    39    22    23   ar
    40    22    46    1
    41    23    24   ar
    42    23    47    1
    43    24    25   ar
    44    24    48    1
    45    25    49    1
    46    26    31   ar
    47    26    27   ar
    48    27    28   ar
    49    27    50    1
    50    28    29   ar
    51    28    51    1
    52    29    30   ar
    53    29    52    1
    54    30    31   ar
    55    30    53    1
    56    31    54    1
    57    32    55    1
@<TRIPOS>SUBSTRUCTURE
     1 ZINC000050607728        1 TEMP              0 ****  ****    0 ROOT


##########                                Name:     oleObject15.pdb
##########                DOCK_Rotatable_Bonds:                   9
##########                         Heavy_Atoms:                  29
##########                    Molecular_Weight:             395.545
##########                DOCK_Rotatable_Bonds:                   9
##########                       Formal_Charge:         0.000700183
##########                     HBond_Acceptors:                   5
##########                        HBond_Donors:                   1
##########                         Heavy_Atoms:                  29
##########                          Grid_Score:          -37.148785
##########                     Grid_vdw_energy:          -36.549717
##########                      Grid_es_energy:           -0.599066
##########           Internal_energy_repulsive:           14.529819

@<TRIPOS>MOLECULE
oleObject15.pdb
 62 64 1 0 0
SMALL
NO_CHARGES


@<TRIPOS>ATOM
      1 O         -11.6320   -3.8585   55.0427 O.3     1  UNL        -0.3745
      2 C         -12.5393   -4.2603   56.0938 C.3     1  UNL         0.0600
      3 C         -11.7101   -4.8170   57.2744 C.3     1  UNL         0.0217
      4 N         -10.7788   -3.8413   57.8874 N.4     1  UNL        -0.3010
      5 C         -11.2369   -2.4339   57.8384 C.3     1  UNL        -0.0010
      6 C         -10.1632   -1.4614   58.3731 C.3     1  UNL        -0.0289
      7 C          -9.6651   -1.8358   59.7898 C.3     1  UNL         0.0382
      8 C          -9.2751   -3.3348   59.8368 C.3     1  UNL        -0.0289
      9 C         -10.3521   -4.2686   59.2367 C.3     1  UNL        -0.0010
     10 C         -10.7012   -1.4618   60.8787 C.2     1  UNL         0.2156
     11 O         -11.6982   -2.1323   61.0767 O.2     1  UNL        -0.2774
     12 N         -10.4797   -0.3584   61.6929 N.am    1  UNL        -0.3025
     13 C         -11.3434    0.1504   62.7749 C.3     1  UNL         0.0900
     14 C         -10.5523    0.7566   63.9326 C.ar    1  UNL        -0.0217
     15 C         -11.1785    1.5767   64.8929 C.ar    1  UNL        -0.0568
     16 C         -10.4337    2.1362   65.9440 C.ar    1  UNL        -0.0619
     17 C          -9.0578    1.8780   66.0458 C.ar    1  UNL        -0.0622
     18 C          -8.4281    1.0575   65.0968 C.ar    1  UNL        -0.0619
     19 C          -9.1731    0.4979   64.0460 C.ar    1  UNL        -0.0568
     20 C         -12.3789    1.1413   62.2512 C.ar    1  UNL         0.0652
     21 C         -12.0290    2.4602   61.8948 C.ar    1  UNL        -0.0383
     22 C         -13.0289    3.3281   61.4274 C.ar    1  UNL        -0.0588
     23 C         -14.3442    2.8477   61.3337 C.ar    1  UNL        -0.0438
     24 C         -14.6062    1.5197   61.7115 C.ar    1  UNL         0.0272
     25 N         -13.6473    0.6848   62.1608 N.ar    1  UNL        -0.2590
     26 C         -12.1435   -3.1512   53.8881 C.3     1  UNL         0.0599
     27 C         -10.9932   -2.8987   52.8814 C.3     1  UNL        -0.0364
     28 C         -13.1898   -4.1036   53.2664 C.3     1  UNL        -0.0364
     29 C         -12.8211   -1.8304   54.3314 C.3     1  UNL        -0.0364
     30 H         -13.2144   -5.0468   55.7355 H       1  UNL         0.0581
     31 H         -13.1500   -3.4189   56.4387 H       1  UNL         0.0581
     32 H         -11.1372   -5.6757   56.9018 H       1  UNL         0.0455
     33 H         -12.4009   -5.1933   58.0396 H       1  UNL         0.0455
     34 H         -12.1562   -2.3219   58.4275 H       1  UNL         0.0431
     35 H         -11.4639   -2.1405   56.8068 H       1  UNL         0.0431
     36 H         -10.5566   -0.4383   58.3651 H       1  UNL         0.0288
     37 H          -9.3096   -1.4736   57.6829 H       1  UNL         0.0288
     38 H          -8.7416   -1.2790   59.9689 H       1  UNL         0.0402
     39 H          -9.0547   -3.6343   60.8693 H       1  UNL         0.0288
     40 H          -8.3473   -3.4726   59.2665 H       1  UNL         0.0288
     41 H         -11.2216   -4.2991   59.9051 H       1  UNL         0.0431
     42 H          -9.9411   -5.2853   59.1901 H       1  UNL         0.0431
     43 H          -9.5781    0.0884   61.5855 H       1  UNL         0.1504
     44 H         -11.9054   -0.7097   63.1605 H       1  UNL         0.0624
     45 H         -12.2409    1.7906   64.8215 H       1  UNL         0.0626
     46 H         -10.9227    2.7710   66.6774 H       1  UNL         0.0623
     47 H          -8.4816    2.3111   66.8584 H       1  UNL         0.0623
     48 H          -7.3638    0.8546   65.1756 H       1  UNL         0.0623
     49 H          -8.6764   -0.1368   63.3174 H       1  UNL         0.0626
     50 H         -11.0033    2.8063   61.9784 H       1  UNL         0.0643
     51 H         -12.7895    4.3492   61.1451 H       1  UNL         0.0624
     52 H         -15.1446    3.4892   60.9769 H       1  UNL         0.0639
     53 H         -15.6145    1.1115   61.6534 H       1  UNL         0.0840
     54 H         -10.4403   -3.8253   52.6807 H       1  UNL         0.0260
     55 H         -10.2845   -2.1507   53.2569 H       1  UNL         0.0260
     56 H         -11.3877   -2.5269   51.9274 H       1  UNL         0.0260
     57 H         -12.7279   -5.0568   52.9784 H       1  UNL         0.0260
     58 H         -13.6422   -3.6613   52.3698 H       1  UNL         0.0260
     59 H         -13.9945   -4.3200   53.9808 H       1  UNL         0.0260
     60 H         -12.0861   -1.1064   54.7040 H       1  UNL         0.0260
     61 H         -13.5548   -2.0156   55.1264 H       1  UNL         0.0260
     62 H         -13.3464   -1.3627   53.4891 H       1  UNL         0.0260
@<TRIPOS>BOND
     1     1     2    1
     2     1    26    1
     3     2     3    1
     4     2    30    1
     5     2    31    1
     6     3     4    1
     7     3    32    1
     8     3    33    1
     9     4     5    1
    10     4     9    1
    11     5     6    1
    12     5    34    1
    13     5    35    1
    14     6     7    1
    15     6    36    1
    16     6    37    1
    17     7     8    1
    18     7    10    1
    19     7    38    1
    20     8     9    1
    21     8    39    1
    22     8    40    1
    23     9    41    1
    24     9    42    1
    25    10    11    2
    26    10    12   am
    27    12    13    1
    28    12    43    1
    29    13    14    1
    30    13    20    1
    31    13    44    1
    32    14    15   ar
    33    14    19   ar
    34    15    16   ar
    35    15    45    1
    36    16    17   ar
    37    16    46    1
    38    17    18   ar
    39    17    47    1
    40    18    19   ar
    41    18    48    1
    42    19    49    1
    43    20    21   ar
    44    20    25   ar
    45    21    22   ar
    46    21    50    1
    47    22    23   ar
    48    22    51    1
    49    23    24   ar
    50    23    52    1
    51    24    25   ar
    52    24    53    1
    53    26    27    1
    54    26    28    1
    55    26    29    1
    56    27    54    1
    57    27    55    1
    58    27    56    1
    59    28    57    1
    60    28    58    1
    61    28    59    1
    62    29    60    1
    63    29    61    1
    64    29    62    1
@<TRIPOS>SUBSTRUCTURE
     1 UNL         1 TEMP              0 ****  ****    0 ROOT


##########                                Name:    ZINC000124554441
##########                DOCK_Rotatable_Bonds:                   9
##########                         Heavy_Atoms:                  26
##########                    Molecular_Weight:             375.898
##########                DOCK_Rotatable_Bonds:                   9
##########                       Formal_Charge:         -0.00999991
##########                     HBond_Acceptors:                   6
##########                        HBond_Donors:                   1
##########                         Heavy_Atoms:                  26
##########                          Grid_Score:          -37.119194
##########                     Grid_vdw_energy:          -37.091606
##########                      Grid_es_energy:           -0.027589
##########           Internal_energy_repulsive:           11.980392

@<TRIPOS>MOLECULE
ZINC000124554441
 52 53 1 0 0
SMALL
USER_CHARGES


@<TRIPOS>ATOM
      1 C1        -10.0878    0.9107   64.6514 C.3     1  ZINC000124554441   -0.1500
      2 C2         -9.3664   -0.1997   63.8849 C.3     1  ZINC000124554441   -0.1300
      3 C3        -10.1787   -0.5730   62.6433 C.3     1  ZINC000124554441   -0.1200
      4 C4         -9.4579   -1.6843   61.8774 C.3     1  ZINC000124554441   -0.1200
      5 C5        -10.3835   -2.2395   60.7931 C.3     1  ZINC000124554441   -0.1300
      6 C6         -9.6179   -3.2512   59.9379 C.3     1  ZINC000124554441    0.1200
      7 N7        -10.4694   -3.7010   58.8339 N.am    1  ZINC000124554441   -0.7300
      8 C8        -10.5490   -2.9712   57.7036 C.2     1  ZINC000124554441    0.5200
      9 O9         -9.9167   -1.9414   57.6010 O.2     1  ZINC000124554441   -0.5300
     10 C10       -11.4235   -3.4350   56.5673 C.3     1  ZINC000124554441   -0.1200
     11 H11       -10.8666   -4.1314   55.9404 H       1  ZINC000124554441    0.1000
     12 C12       -12.6638   -4.1332   57.1294 C.3     1  ZINC000124554441   -0.1000
     13 C13       -13.5364   -4.6335   55.9760 C.3     1  ZINC000124554441   -0.1400
     14 C14       -13.9944   -3.4396   55.1324 C.3     1  ZINC000124554441    0.0900
     15 N15       -12.8112   -2.6788   54.7080 N.am    1  ZINC000124554441   -0.6000
     16 C16       -12.6048   -2.4001   53.4057 C.2     1  ZINC000124554441    0.5600
     17 O17       -13.4014   -2.7788   52.5694 O.2     1  ZINC000124554441   -0.5200
     18 C18       -11.4088   -1.6332   52.9940 C.ar    1  ZINC000124554441   -0.0900
     19 C19       -10.3479   -2.2824   52.3595 C.ar    1  ZINC000124554441   -0.0900
     20 C20        -9.2338   -1.5695   51.9757 C.ar    1  ZINC000124554441   -0.0600
     21 C21        -9.1642   -0.1964   52.2214 C.ar    1  ZINC000124554441    0.0100
     22 C22        -8.0059    0.5450   51.8224 C.1     1  ZINC000124554441    0.2400
     23 N23        -7.0869    1.1331   51.5058 N.1     1  ZINC000124554441   -0.3800
     24 C24       -10.2263    0.4541   52.8568 C.ar    1  ZINC000124554441    0.0000
     25 Cl25      -10.1415    2.1609   53.1624 Cl      1  ZINC000124554441   -0.0400
     26 C26       -11.3437   -0.2597   53.2349 C.ar    1  ZINC000124554441   -0.0600
     27 C27       -11.8568   -2.2275   55.7299 C.3     1  ZINC000124554441    0.1200
     28 H28       -10.1935    1.7855   64.0098 H       1  ZINC000124554441    0.0500
     29 H29       -11.0747    0.5610   64.9544 H       1  ZINC000124554441    0.0500
     30 H30        -9.5092    1.1766   65.5360 H       1  ZINC000124554441    0.0500
     31 H31        -8.3795    0.1500   63.5819 H       1  ZINC000124554441    0.0600
     32 H32        -9.2608   -1.0746   64.5265 H       1  ZINC000124554441    0.0600
     33 H33       -11.1659   -0.9218   62.9462 H       1  ZINC000124554441    0.0600
     34 H34       -10.2836    0.3016   62.0012 H       1  ZINC000124554441    0.0600
     35 H35        -8.5570   -1.2814   61.4147 H       1  ZINC000124554441    0.0700
     36 H36        -9.1859   -2.4833   62.5670 H       1  ZINC000124554441    0.0700
     37 H37       -11.2368   -2.7311   61.2605 H       1  ZINC000124554441    0.0700
     38 H38       -10.7351   -1.4231   60.1624 H       1  ZINC000124554441    0.0700
     39 H39        -8.7200   -2.7815   59.5362 H       1  ZINC000124554441    0.0700
     40 H40        -9.3367   -4.1068   60.5518 H       1  ZINC000124554441    0.0700
     41 H41       -10.9760   -4.5241   58.9164 H       1  ZINC000124554441    0.4000
     42 H42       -12.3568   -4.9783   57.7456 H       1  ZINC000124554441    0.0800
     43 H43       -13.2330   -3.4293   57.7366 H       1  ZINC000124554441    0.0800
     44 H44       -12.9599   -5.3186   55.3543 H       1  ZINC000124554441    0.0700
     45 H45       -14.4078   -5.1511   56.3771 H       1  ZINC000124554441    0.0900
     46 H46       -14.5329   -3.7974   54.2548 H       1  ZINC000124554441    0.1000
     47 H47       -14.6458   -2.7999   55.7278 H       1  ZINC000124554441    0.0800
     48 H48       -10.4009   -3.3443   52.1699 H       1  ZINC000124554441    0.1500
     49 H49        -8.4137   -2.0724   51.4850 H       1  ZINC000124554441    0.1500
     50 H50       -12.1645    0.2420   53.7257 H       1  ZINC000124554441    0.1500
     51 H51       -12.3335   -1.4890   56.3744 H       1  ZINC000124554441    0.0800
     52 H52       -10.9856   -1.7855   55.2465 H       1  ZINC000124554441    0.1000
@<TRIPOS>BOND
     1     1     2    1
     2     1    28    1
     3     1    29    1
     4     1    30    1
     5     2     3    1
     6     2    31    1
     7     2    32    1
     8     3     4    1
     9     3    33    1
    10     3    34    1
    11     4     5    1
    12     4    35    1
    13     4    36    1
    14     5     6    1
    15     5    37    1
    16     5    38    1
    17     6     7    1
    18     6    39    1
    19     6    40    1
    20     7     8   am
    21     7    41    1
    22     8     9    2
    23     8    10    1
    24    10    11    1
    25    10    27    1
    26    10    12    1
    27    12    13    1
    28    12    42    1
    29    12    43    1
    30    13    14    1
    31    13    44    1
    32    13    45    1
    33    14    15    1
    34    14    46    1
    35    14    47    1
    36    15    16   am
    37    15    27    1
    38    16    17    2
    39    16    18    1
    40    18    26   ar
    41    18    19   ar
    42    19    20   ar
    43    19    48    1
    44    20    21   ar
    45    20    49    1
    46    21    22    1
    47    21    24   ar
    48    22    23    3
    49    24    25    1
    50    24    26   ar
    51    26    50    1
    52    27    51    1
    53    27    52    1
@<TRIPOS>SUBSTRUCTURE
     1 ZINC000124554441        1 TEMP              0 ****  ****    0 ROOT


##########                                Name:    ZINC000482187991
##########                DOCK_Rotatable_Bonds:                  11
##########                         Heavy_Atoms:                  29
##########                    Molecular_Weight:             407.414
##########                DOCK_Rotatable_Bonds:                  11
##########                       Formal_Charge:           0.0299996
##########                     HBond_Acceptors:                   8
##########                        HBond_Donors:                   1
##########                         Heavy_Atoms:                  29
##########                          Grid_Score:          -37.050762
##########                     Grid_vdw_energy:          -36.503441
##########                      Grid_es_energy:           -0.547320
##########           Internal_energy_repulsive:           12.608149

@<TRIPOS>MOLECULE
ZINC000482187991
 52 53 1 0 0
SMALL
USER_CHARGES


@<TRIPOS>ATOM
      1 C1        -14.4912   -5.8901   56.9982 C.3     1  ZINC000482187991    0.0200
      2 O2        -13.1876   -5.9013   56.4127 O.3     1  ZINC000482187991   -0.3000
      3 C3        -12.4393   -4.7740   56.5503 C.ar    1  ZINC000482187991    0.1400
      4 C4        -11.4981   -4.6895   57.5577 C.ar    1  ZINC000482187991   -0.1700
      5 C5        -10.7280   -3.5288   57.6982 C.ar    1  ZINC000482187991   -0.1000
      6 C6         -9.7260   -3.4352   58.7678 C.2     1  ZINC000482187991    0.4000
      7 O7         -9.0212   -4.3888   59.0236 O.2     1  ZINC000482187991   -0.4500
      8 C8         -9.5732   -2.1546   59.5473 C.3     1  ZINC000482187991   -0.1500
      9 C9        -10.3090   -2.2796   60.8829 C.3     1  ZINC000482187991   -0.1300
     10 C10       -11.6602   -1.6210   60.7756 C.2     1  ZINC000482187991    0.5200
     11 O11       -11.7536   -0.4138   60.8451 O.2     1  ZINC000482187991   -0.5200
     12 N12       -12.7649   -2.3735   60.6027 N.am    1  ZINC000482187991   -0.7200
     13 C13       -14.0787   -1.7332   60.5001 C.3     1  ZINC000482187991    0.1500
     14 H14       -14.0026   -0.8469   59.8703 H       1  ZINC000482187991    0.1300
     15 C15       -14.5514   -1.3340   61.8743 C.ar    1  ZINC000482187991   -0.1100
     16 C16       -14.6647    0.0035   62.2047 C.ar    1  ZINC000482187991   -0.1000
     17 C17       -15.0983    0.3697   63.4651 C.ar    1  ZINC000482187991   -0.1200
     18 C18       -15.4189   -0.6016   64.3951 C.ar    1  ZINC000482187991   -0.1100
     19 C19       -15.3064   -1.9391   64.0643 C.ar    1  ZINC000482187991   -0.1200
     20 C20       -14.8769   -2.3053   62.8025 C.ar    1  ZINC000482187991   -0.1000
     21 C21       -15.0772   -2.7140   59.8822 C.3     1  ZINC000482187991    0.2500
     22 F22       -16.3325   -2.1037   59.7876 F       1  ZINC000482187991   -0.1900
     23 F23       -14.6400   -3.0819   58.6052 F       1  ZINC000482187991   -0.2000
     24 C24       -10.9151   -2.4575   56.8163 C.ar    1  ZINC000482187991   -0.1900
     25 C25       -11.8583   -2.5494   55.8113 C.ar    1  ZINC000482187991    0.1400
     26 O26       -12.0405   -1.5096   54.9539 O.3     1  ZINC000482187991   -0.3000
     27 C27       -10.8860   -1.0292   54.2622 C.3     1  ZINC000482187991    0.0200
     28 C28       -12.6190   -3.7081   55.6714 C.ar    1  ZINC000482187991    0.0600
     29 O29       -13.5453   -3.7949   54.6816 O.3     1  ZINC000482187991   -0.3100
     30 C30       -13.1268   -4.3907   53.4519 C.3     1  ZINC000482187991    0.0400
     31 H31       -14.9796   -6.8473   56.8159 H       1  ZINC000482187991    0.1100
     32 H32       -14.4057   -5.7246   58.0722 H       1  ZINC000482187991    0.0600
     33 H33       -15.0825   -5.0898   56.5532 H       1  ZINC000482187991    0.0600
     34 H34       -11.3568   -5.5177   58.2363 H       1  ZINC000482187991    0.1500
     35 H35        -8.5157   -1.9653   59.7315 H       1  ZINC000482187991    0.1100
     36 H36        -9.9960   -1.3286   58.9755 H       1  ZINC000482187991    0.1100
     37 H37       -10.4372   -3.3336   61.1299 H       1  ZINC000482187991    0.1000
     38 H38        -9.7279   -1.7913   61.6651 H       1  ZINC000482187991    0.1000
     39 H39       -12.6901   -3.3389   60.5459 H       1  ZINC000482187991    0.4100
     40 H40       -14.4143    0.7623   61.4782 H       1  ZINC000482187991    0.1200
     41 H41       -15.1862    1.4146   63.7236 H       1  ZINC000482187991    0.1300
     42 H42       -15.7570   -0.3155   65.3801 H       1  ZINC000482187991    0.1300
     43 H43       -15.5565   -2.6979   64.7910 H       1  ZINC000482187991    0.1300
     44 H44       -14.7891   -3.3502   62.5441 H       1  ZINC000482187991    0.1300
     45 H45       -15.1510   -3.6016   60.5106 H       1  ZINC000482187991    0.1200
     46 H46       -10.3231   -1.5605   56.9219 H       1  ZINC000482187991    0.1500
     47 H47       -10.1457   -0.6864   54.9851 H       1  ZINC000482187991    0.0600
     48 H48       -10.4616   -1.8335   53.6611 H       1  ZINC000482187991    0.0600
     49 H49       -11.1700   -0.2012   53.6127 H       1  ZINC000482187991    0.1100
     50 H50       -12.3020   -3.8153   53.0316 H       1  ZINC000482187991    0.0500
     51 H51       -12.7989   -5.4137   53.6369 H       1  ZINC000482187991    0.0500
     52 H52       -13.9602   -4.3976   52.7494 H       1  ZINC000482187991    0.1000
@<TRIPOS>BOND
     1     1     2    1
     2     1    31    1
     3     1    32    1
     4     1    33    1
     5     2     3    1
     6     3    28   ar
     7     3     4   ar
     8     4     5   ar
     9     4    34    1
    10     5     6    1
    11     5    24   ar
    12     6     7    2
    13     6     8    1
    14     8     9    1
    15     8    35    1
    16     8    36    1
    17     9    10    1
    18     9    37    1
    19     9    38    1
    20    10    11    2
    21    10    12   am
    22    12    13    1
    23    12    39    1
    24    13    14    1
    25    13    15    1
    26    13    21    1
    27    15    20   ar
    28    15    16   ar
    29    16    17   ar
    30    16    40    1
    31    17    18   ar
    32    17    41    1
    33    18    19   ar
    34    18    42    1
    35    19    20   ar
    36    19    43    1
    37    20    44    1
    38    21    22    1
    39    21    23    1
    40    21    45    1
    41    24    25   ar
    42    24    46    1
    43    25    26    1
    44    25    28   ar
    45    26    27    1
    46    27    47    1
    47    27    48    1
    48    27    49    1
    49    28    29    1
    50    29    30    1
    51    30    50    1
    52    30    51    1
    53    30    52    1
@<TRIPOS>SUBSTRUCTURE
     1 ZINC000482187991        1 TEMP              0 ****  ****    0 ROOT


##########                                Name:    ZINC000851838607
##########                DOCK_Rotatable_Bonds:                  12
##########                         Heavy_Atoms:                  23
##########                    Molecular_Weight:             352.495
##########                DOCK_Rotatable_Bonds:                  12
##########                       Formal_Charge:          0.00999896
##########                     HBond_Acceptors:                   8
##########                        HBond_Donors:                   2
##########                         Heavy_Atoms:                  23
##########                          Grid_Score:          -36.990925
##########                     Grid_vdw_energy:          -36.233978
##########                      Grid_es_energy:           -0.756946
##########           Internal_energy_repulsive:           22.012146

@<TRIPOS>MOLECULE
ZINC000851838607
 55 54 1 0 0
SMALL
USER_CHARGES


@<TRIPOS>ATOM
      1 C1         -7.1391    0.3675   50.4861 C.3     1  ZINC000851838607    0.0300
      2 O2         -7.9169   -0.1379   51.5731 O.3     1  ZINC000851838607   -0.3800
      3 C3         -8.5947    0.8728   52.3223 C.3     1  ZINC000851838607    0.0800
      4 C4         -9.4160    0.2184   53.4349 C.3     1  ZINC000851838607   -0.6000
      5 H5         -8.7534   -0.3439   54.0928 H       1  ZINC000851838607    0.1400
      6 C6        -10.1366    1.3010   54.2411 C.3     1  ZINC000851838607   -0.1400
      7 S7        -10.6381   -0.9051   52.7035 S.o2    1  ZINC000851838607    2.6200
      8 O8        -11.6886   -0.1692   52.0919 O.2     1  ZINC000851838607   -0.9400
      9 O9         -9.9906   -1.9668   52.0161 O.2     1  ZINC000851838607   -0.9500
     10 N10       -11.3558   -1.6379   54.0037 N.am    1  ZINC000851838607   -1.1200
     11 C11       -12.4142   -2.6287   53.7940 C.3     1  ZINC000851838607    0.1100
     12 C12       -13.3952   -2.5833   54.9672 C.3     1  ZINC000851838607   -0.1400
     13 C13       -13.1106   -3.7496   55.9156 C.3     1  ZINC000851838607    0.1700
     14 H14       -12.2530   -4.3142   55.5499 H       1  ZINC000851838607    0.1000
     15 N15       -12.8188   -3.2306   57.2541 N.am    1  ZINC000851838607   -0.7100
     16 C16       -11.8044   -3.7514   57.9726 C.2     1  ZINC000851838607    0.6500
     17 O17       -11.1309   -4.6507   57.5095 O.2     1  ZINC000851838607   -0.5600
     18 O18       -11.5373   -3.2756   59.2033 O.3     1  ZINC000851838607   -0.3700
     19 C19       -10.2694   -2.5917   59.3848 C.3     1  ZINC000851838607    0.1400
     20 C20        -9.1507   -3.6240   59.5393 C.3     1  ZINC000851838607   -0.1800
     21 C21        -9.9859   -1.7109   58.1663 C.3     1  ZINC000851838607   -0.1400
     22 C22       -10.3354   -1.7195   60.6402 C.3     1  ZINC000851838607   -0.1800
     23 C23       -14.3345   -4.6654   55.9793 C.3     1  ZINC000851838607   -0.1100
     24 C24       -14.3950   -5.5245   54.7147 C.3     1  ZINC000851838607   -0.1500
     25 C25       -14.2296   -5.5721   57.2073 C.3     1  ZINC000851838607   -0.1400
     26 H26        -7.7884    0.9014   49.7921 H       1  ZINC000851838607    0.0400
     27 H27        -6.3788    1.0483   50.8690 H       1  ZINC000851838607    0.0500
     28 H28        -6.6569   -0.4614   49.9680 H       1  ZINC000851838607    0.0900
     29 H29        -7.8634    1.5513   52.7615 H       1  ZINC000851838607    0.0700
     30 H30        -9.2578    1.4314   51.6617 H       1  ZINC000851838607    0.0600
     31 H31       -10.7920    0.8318   54.9748 H       1  ZINC000851838607    0.0700
     32 H32        -9.4019    1.9214   54.7542 H       1  ZINC000851838607    0.0900
     33 H33       -10.7292    1.9209   53.5683 H       1  ZINC000851838607    0.0700
     34 H34       -11.0753   -1.4110   54.9042 H       1  ZINC000851838607    0.4200
     35 H35       -12.9441   -2.4040   52.8683 H       1  ZINC000851838607    0.0700
     36 H36       -11.9730   -3.6232   53.7277 H       1  ZINC000851838607    0.0800
     37 H37       -13.2768   -1.6417   55.5034 H       1  ZINC000851838607    0.0800
     38 H38       -14.4153   -2.6614   54.5911 H       1  ZINC000851838607    0.1000
     39 H39       -13.3556   -2.5120   57.6233 H       1  ZINC000851838607    0.4100
     40 H40        -9.1035   -4.2453   58.6450 H       1  ZINC000851838607    0.0600
     41 H41        -8.1989   -3.1105   59.6756 H       1  ZINC000851838607    0.0700
     42 H42        -9.3526   -4.2514   60.4074 H       1  ZINC000851838607    0.0900
     43 H43       -10.7829   -0.9755   58.0562 H       1  ZINC000851838607    0.0700
     44 H44        -9.0341   -1.1976   58.3025 H       1  ZINC000851838607    0.0800
     45 H45        -9.9388   -2.3323   57.2720 H       1  ZINC000851838607    0.0700
     46 H46       -10.5373   -2.3470   61.5084 H       1  ZINC000851838607    0.0900
     47 H47        -9.3836   -1.2061   60.7764 H       1  ZINC000851838607    0.0700
     48 H48       -11.1324   -0.9841   60.5302 H       1  ZINC000851838607    0.0600
     49 H49       -15.2380   -4.0599   56.0509 H       1  ZINC000851838607    0.0700
     50 H50       -13.4915   -6.1300   54.6432 H       1  ZINC000851838607    0.0600
     51 H51       -15.2670   -6.1770   54.7602 H       1  ZINC000851838607    0.0600
     52 H52       -14.4698   -4.8786   53.8399 H       1  ZINC000851838607    0.0600
     53 H53       -14.1865   -4.9601   58.1082 H       1  ZINC000851838607    0.0500
     54 H54       -15.1015   -6.2246   57.2527 H       1  ZINC000851838607    0.0500
     55 H55       -13.3261   -6.1776   57.1358 H       1  ZINC000851838607    0.0700
@<TRIPOS>BOND
     1     1     2    1
     2     1    26    1
     3     1    27    1
     4     1    28    1
     5     2     3    1
     6     3     4    1
     7     3    29    1
     8     3    30    1
     9     4     5    1
    10     4     6    1
    11     4     7    1
    12     6    31    1
    13     6    32    1
    14     6    33    1
    15     7     8    2
    16     7     9    2
    17     7    10   am
    18    10    11    1
    19    10    34    1
    20    11    12    1
    21    11    35    1
    22    11    36    1
    23    12    13    1
    24    12    37    1
    25    12    38    1
    26    13    14    1
    27    13    15    1
    28    13    23    1
    29    15    16   am
    30    15    39    1
    31    16    17    2
    32    16    18    1
    33    18    19    1
    34    19    20    1
    35    19    21    1
    36    19    22    1
    37    20    40    1
    38    20    41    1
    39    20    42    1
    40    21    43    1
    41    21    44    1
    42    21    45    1
    43    22    46    1
    44    22    47    1
    45    22    48    1
    46    23    24    1
    47    23    25    1
    48    23    49    1
    49    24    50    1
    50    24    51    1
    51    24    52    1
    52    25    53    1
    53    25    54    1
    54    25    55    1
@<TRIPOS>SUBSTRUCTURE
     1 ZINC000851838607        1 TEMP              0 ****  ****    0 ROOT


##########                                Name:    ZINC000771225867
##########                DOCK_Rotatable_Bonds:                   9
##########                         Heavy_Atoms:                  23
##########                    Molecular_Weight:             355.802
##########                DOCK_Rotatable_Bonds:                   9
##########                       Formal_Charge:        -3.12924e-07
##########                     HBond_Acceptors:                   9
##########                        HBond_Donors:                   3
##########                         Heavy_Atoms:                  23
##########                          Grid_Score:          -36.989780
##########                     Grid_vdw_energy:          -36.382629
##########                      Grid_es_energy:           -0.607153
##########           Internal_energy_repulsive:           11.051138

@<TRIPOS>MOLECULE
ZINC000771225867
 37 38 1 0 0
SMALL
USER_CHARGES


@<TRIPOS>ATOM
      1 C1        -14.3849   -1.0164   49.5952 C.3     1  ZINC000771225867    0.0400
      2 O2        -14.6061   -1.8832   50.7096 O.3     1  ZINC000771225867   -0.3600
      3 C3        -13.5163   -2.2967   51.3901 C.2     1  ZINC000771225867    0.5500
      4 O4        -12.4082   -1.9295   51.0457 O.2     1  ZINC000771225867   -0.4900
      5 C5        -13.6622   -3.1575   52.5040 C.2     1  ZINC000771225867   -0.3400
      6 C6        -12.6445   -3.7380   53.2150 C.2     1  ZINC000771225867    0.2700
      7 Cl7       -10.9676   -3.4924   52.8390 Cl      1  ZINC000771225867    0.0400
      8 N8        -13.0508   -4.4940   54.2035 N.2     1  ZINC000771225867   -0.5500
      9 C9        -14.3362   -4.5992   54.3853 C.2     1  ZINC000771225867    0.3400
     10 N10       -14.9297   -5.3508   55.3760 N.pl3   1  ZINC000771225867   -0.6700
     11 C11       -14.1032   -6.0060   56.3927 C.3     1  ZINC000771225867    0.1700
     12 C12       -13.5272   -4.9659   57.3186 C.ar    1  ZINC000771225867   -0.0800
     13 C13       -14.3694   -4.1682   58.0706 C.ar    1  ZINC000771225867   -0.1300
     14 C14       -13.8440   -3.2128   58.9212 C.ar    1  ZINC000771225867   -0.0800
     15 C15       -12.4756   -3.0533   59.0213 C.ar    1  ZINC000771225867   -0.2000
     16 C16       -11.6281   -3.8526   58.2677 C.ar    1  ZINC000771225867    0.1300
     17 O17       -10.2814   -3.6979   58.3648 O.3     1  ZINC000771225867   -0.2900
     18 C18        -9.7087   -3.8041   59.6696 C.3     1  ZINC000771225867    0.0400
     19 C19        -9.4609   -2.4245   60.2232 C.2     1  ZINC000771225867    0.5200
     20 N20        -9.5057   -2.2142   61.5538 N.am    1  ZINC000771225867   -0.8500
     21 O21        -9.2212   -1.5035   59.4714 O.2     1  ZINC000771225867   -0.5200
     22 C22       -12.1575   -4.8140   57.4194 C.ar    1  ZINC000771225867   -0.1200
     23 S23       -15.1842   -3.6684   53.2296 S.3     1  ZINC000771225867    0.2200
     24 H24       -13.8891   -0.1070   49.9350 H       1  ZINC000771225867    0.0600
     25 H25       -13.7557   -1.5208   48.8618 H       1  ZINC000771225867    0.0600
     26 H26       -15.3410   -0.7602   49.1387 H       1  ZINC000771225867    0.1000
     27 H27       -15.8947   -5.4460   55.4002 H       1  ZINC000771225867    0.4200
     28 H28       -14.7158   -6.7027   56.9651 H       1  ZINC000771225867    0.0900
     29 H29       -13.2925   -6.5492   55.9072 H       1  ZINC000771225867    0.0900
     30 H30       -15.4396   -4.2912   57.9934 H       1  ZINC000771225867    0.1300
     31 H31       -14.5040   -2.5907   59.5074 H       1  ZINC000771225867    0.1300
     32 H32       -12.0658   -2.3068   59.6856 H       1  ZINC000771225867    0.1300
     33 H33       -10.3946   -4.3407   60.3250 H       1  ZINC000771225867    0.1000
     34 H34        -8.7649   -4.3461   59.6092 H       1  ZINC000771225867    0.1000
     35 H35        -9.3450   -1.3264   61.9101 H       1  ZINC000771225867    0.4000
     36 H36        -9.6985   -2.9505   62.1549 H       1  ZINC000771225867    0.4100
     37 H37       -11.5000   -5.4375   56.8317 H       1  ZINC000771225867    0.1400
@<TRIPOS>BOND
     1     1     2    1
     2     1    24    1
     3     1    25    1
     4     1    26    1
     5     2     3    1
     6     3     4    2
     7     3     5    1
     8     5    23    1
     9     5     6    2
    10     6     7    1
    11     6     8    1
    12     8     9    2
    13     9    10    1
    14     9    23    1
    15    10    11    1
    16    10    27    1
    17    11    12    1
    18    11    28    1
    19    11    29    1
    20    12    22   ar
    21    12    13   ar
    22    13    14   ar
    23    13    30    1
    24    14    15   ar
    25    14    31    1
    26    15    16   ar
    27    15    32    1
    28    16    17    1
    29    16    22   ar
    30    17    18    1
    31    18    19    1
    32    18    33    1
    33    18    34    1
    34    19    20   am
    35    19    21    2
    36    20    35    1
    37    20    36    1
    38    22    37    1
@<TRIPOS>SUBSTRUCTURE
     1 ZINC000771225867        1 TEMP              0 ****  ****    0 ROOT


##########                                Name:    ZINC001077846158
##########                DOCK_Rotatable_Bonds:                   7
##########                         Heavy_Atoms:                  24
##########                    Molecular_Weight:             350.442
##########                DOCK_Rotatable_Bonds:                   7
##########                       Formal_Charge:          -0.0600002
##########                     HBond_Acceptors:                   8
##########                        HBond_Donors:                   2
##########                         Heavy_Atoms:                  24
##########                          Grid_Score:          -36.970531
##########                     Grid_vdw_energy:          -35.998032
##########                      Grid_es_energy:           -0.972500
##########           Internal_energy_repulsive:            6.850390

@<TRIPOS>MOLECULE
ZINC001077846158
 46 48 1 0 0
SMALL
USER_CHARGES


@<TRIPOS>ATOM
      1 C1        -13.2149   -0.8089   52.6251 C.3     1  ZINC001077846158   -0.0700
      2 C2        -11.8944   -1.5278   52.5205 C.2     1  ZINC001077846158    0.0100
      3 C3        -11.6784   -2.8294   52.7722 C.2     1  ZINC001077846158   -0.0500
      4 C4        -12.7076   -3.8395   53.2100 C.3     1  ZINC001077846158    0.1300
      5 N5        -13.0077   -3.6466   54.6350 N.3     1  ZINC001077846158   -0.5100
      6 C6        -13.9472   -4.6867   55.1266 C.3     1  ZINC001077846158    0.0000
      7 C7        -13.7328   -4.6613   56.6610 C.3     1  ZINC001077846158    0.1000
      8 H8        -14.2926   -3.8439   57.1152 H       1  ZINC001077846158    0.0800
      9 O9        -14.1045   -5.9118   57.2441 O.3     1  ZINC001077846158   -0.5600
     10 C10       -12.2112   -4.4223   56.7935 C.3     1  ZINC001077846158    0.1400
     11 H11       -11.6912   -5.3684   56.9437 H       1  ZINC001077846158    0.1100
     12 N12       -11.9349   -3.5090   57.9051 N.am    1  ZINC001077846158   -0.7000
     13 C13       -10.8413   -3.6916   58.6714 C.2     1  ZINC001077846158    0.6000
     14 O14       -10.0845   -4.6154   58.4408 O.2     1  ZINC001077846158   -0.5300
     15 C15       -10.5625   -2.7725   59.7878 C.2     1  ZINC001077846158    0.0100
     16 C16        -9.4924   -2.9035   60.6036 C.2     1  ZINC001077846158   -0.2300
     17 S17        -9.5256   -1.6481   61.7633 S.3     1  ZINC001077846158    0.2300
     18 C18       -10.9655   -1.0209   61.0925 C.2     1  ZINC001077846158    0.0300
     19 C19       -11.6922    0.1958   61.6049 C.3     1  ZINC001077846158   -0.0200
     20 C20       -12.7605   -0.2348   62.6120 C.3     1  ZINC001077846158   -0.1500
     21 C21       -10.6961    1.1348   62.2881 C.3     1  ZINC001077846158   -0.1500
     22 N22       -11.3403   -1.7282   60.0854 N.2     1  ZINC001077846158   -0.4500
     23 C23       -11.7862   -3.7853   55.4574 C.3     1  ZINC001077846158    0.0300
     24 O24       -10.3683   -3.0623   52.5594 O.3     1  ZINC001077846158   -0.2100
     25 C25        -9.8040   -1.9072   52.1826 C.2     1  ZINC001077846158    0.1800
     26 N26       -10.7213   -0.9830   52.1526 N.2     1  ZINC001077846158   -0.4900
     27 H27       -13.7349   -0.8632   51.6687 H       1  ZINC001077846158    0.0800
     28 H28       -13.8242   -1.2789   53.3971 H       1  ZINC001077846158    0.0700
     29 H29       -13.0405    0.2351   52.8852 H       1  ZINC001077846158    0.0700
     30 H30       -13.6182   -3.7070   52.6257 H       1  ZINC001077846158    0.0600
     31 H31       -12.3187   -4.8456   53.0536 H       1  ZINC001077846158    0.1100
     32 H32       -14.9755   -4.4250   54.8775 H       1  ZINC001077846158    0.0900
     33 H33       -13.6878   -5.6633   54.7180 H       1  ZINC001077846158    0.0600
     34 H34       -14.9981   -6.2021   57.0158 H       1  ZINC001077846158    0.3900
     35 H35       -12.5390   -2.7729   58.0897 H       1  ZINC001077846158    0.4100
     36 H36        -8.7398   -3.6751   60.5341 H       1  ZINC001077846158    0.1900
     37 H37       -12.1666    0.7136   60.7712 H       1  ZINC001077846158    0.1000
     38 H38       -13.4702   -0.9038   62.1252 H       1  ZINC001077846158    0.0600
     39 H39       -12.2862   -0.7527   63.4457 H       1  ZINC001077846158    0.0600
     40 H40       -13.2862    0.6452   62.9826 H       1  ZINC001077846158    0.0700
     41 H41        -9.9351    1.4415   61.5707 H       1  ZINC001077846158    0.0600
     42 H42       -11.2218    2.0148   62.6588 H       1  ZINC001077846158    0.0700
     43 H43       -10.2218    0.6170   63.1218 H       1  ZINC001077846158    0.0600
     44 H44       -11.0684   -4.4300   54.9503 H       1  ZINC001077846158    0.0600
     45 H45       -11.3462   -2.8043   55.6370 H       1  ZINC001077846158    0.0900
     46 H46        -8.7611   -1.7665   51.9394 H       1  ZINC001077846158    0.2500
@<TRIPOS>BOND
     1     1     2    1
     2     1    27    1
     3     1    28    1
     4     1    29    1
     5     2    26    1
     6     2     3    2
     7     3     4    1
     8     3    24    1
     9     4     5    1
    10     4    30    1
    11     4    31    1
    12     5    23    1
    13     5     6    1
    14     6     7    1
    15     6    32    1
    16     6    33    1
    17     7     8    1
    18     7     9    1
    19     7    10    1
    20     9    34    1
    21    10    11    1
    22    10    12    1
    23    10    23    1
    24    12    13   am
    25    12    35    1
    26    13    14    2
    27    13    15    1
    28    15    22    1
    29    15    16    2
    30    16    17    1
    31    16    36    1
    32    17    18    1
    33    18    19    1
    34    18    22    2
    35    19    20    1
    36    19    21    1
    37    19    37    1
    38    20    38    1
    39    20    39    1
    40    20    40    1
    41    21    41    1
    42    21    42    1
    43    21    43    1
    44    23    44    1
    45    23    45    1
    46    24    25    1
    47    25    26    2
    48    25    46    1
@<TRIPOS>SUBSTRUCTURE
     1 ZINC001077846158        1 TEMP              0 ****  ****    0 ROOT


##########                                Name:    ZINC000433961694
##########                DOCK_Rotatable_Bonds:                   7
##########                         Heavy_Atoms:                  29
##########                    Molecular_Weight:             413.472
##########                DOCK_Rotatable_Bonds:                   7
##########                       Formal_Charge:          0.00999992
##########                     HBond_Acceptors:                   8
##########                        HBond_Donors:                   0
##########                         Heavy_Atoms:                  29
##########                          Grid_Score:          -36.965347
##########                     Grid_vdw_energy:          -37.208561
##########                      Grid_es_energy:            0.243215
##########           Internal_energy_repulsive:           18.252975

@<TRIPOS>MOLECULE
ZINC000433961694
 49 52 1 0 0
SMALL
USER_CHARGES


@<TRIPOS>ATOM
      1 C1        -13.3661   -5.9774   56.4249 C.3     1  ZINC000433961694   -0.1000
      2 C2        -12.4990   -4.8054   56.8065 C.2     1  ZINC000433961694    0.1600
      3 C3        -12.5773   -3.5993   56.1906 C.2     1  ZINC000433961694   -0.3000
      4 C4        -13.4833   -3.2463   55.0923 C.2     1  ZINC000433961694    0.6200
      5 O5        -14.6724   -3.4886   55.1827 O.2     1  ZINC000433961694   -0.5100
      6 N6        -12.9988   -2.6535   53.9832 N.am    1  ZINC000433961694   -0.6100
      7 C7        -11.5868   -2.3042   53.7426 C.3     1  ZINC000433961694    0.1100
      8 C8        -11.4480   -2.2532   52.2006 C.3     1  ZINC000433961694   -0.1300
      9 C9        -12.8120   -1.6413   51.7851 C.3     1  ZINC000433961694    0.0800
     10 H10       -12.7892   -0.5548   51.8700 H       1  ZINC000433961694    0.1000
     11 O11       -13.1592   -2.0355   50.4562 O.3     1  ZINC000433961694   -0.2900
     12 C12       -14.2984   -1.5122   49.9359 C.ar    1  ZINC000433961694    0.1700
     13 C13       -15.0793   -0.6263   50.6741 C.ar    1  ZINC000433961694   -0.2600
     14 C14       -16.2303   -0.1161   50.1097 C.ar    1  ZINC000433961694    0.1400
     15 N15       -16.5931   -0.4577   48.8878 N.ar    1  ZINC000433961694   -0.5100
     16 C16       -15.8798   -1.2939   48.1574 C.ar    1  ZINC000433961694    0.1400
     17 C17       -14.7130   -1.8428   48.6482 C.ar    1  ZINC000433961694   -0.2000
     18 C18       -13.7897   -2.2538   52.8100 C.3     1  ZINC000433961694    0.0600
     19 S19       -11.3961   -2.5325   56.9468 S.3     1  ZINC000433961694    0.2100
     20 C20       -10.9196   -3.7916   58.0003 C.2     1  ZINC000433961694    0.0400
     21 C21        -9.8527   -3.6708   59.0578 C.3     1  ZINC000433961694    0.1400
     22 O22        -9.3494   -2.3334   59.0761 O.3     1  ZINC000433961694   -0.3000
     23 C23        -9.6852   -1.5621   60.1440 C.ar    1  ZINC000433961694    0.1200
     24 C24       -10.3509   -0.3607   59.9506 C.ar    1  ZINC000433961694   -0.1800
     25 C25       -10.6916    0.4221   61.0368 C.ar    1  ZINC000433961694   -0.1100
     26 C26       -10.3684    0.0081   62.3178 C.ar    1  ZINC000433961694    0.0600
     27 F27       -10.7017    0.7748   63.3791 F       1  ZINC000433961694   -0.1400
     28 C28        -9.7044   -1.1912   62.5123 C.ar    1  ZINC000433961694   -0.1100
     29 C29        -9.3676   -1.9787   61.4284 C.ar    1  ZINC000433961694   -0.1200
     30 N30       -11.6086   -4.8617   57.7650 N.2     1  ZINC000433961694   -0.4500
     31 H31       -14.2851   -5.9554   57.0107 H       1  ZINC000433961694    0.0800
     32 H32       -13.6099   -5.9188   55.3642 H       1  ZINC000433961694    0.1000
     33 H33       -12.8305   -6.9057   56.6238 H       1  ZINC000433961694    0.0800
     34 H34       -11.3575   -1.3310   54.1765 H       1  ZINC000433961694    0.0800
     35 H35       -10.9307   -3.0695   54.1574 H       1  ZINC000433961694    0.1000
     36 H36       -10.6228   -1.6059   51.9038 H       1  ZINC000433961694    0.1000
     37 H37       -11.3262   -3.2539   51.7859 H       1  ZINC000433961694    0.1000
     38 H38       -14.7881   -0.3429   51.6747 H       1  ZINC000433961694    0.1400
     39 H39       -16.8421    0.5712   50.6751 H       1  ZINC000433961694    0.1600
     40 H40       -16.2112   -1.5483   47.1615 H       1  ZINC000433961694    0.1700
     41 H41       -14.1336   -2.5263   48.0451 H       1  ZINC000433961694    0.1400
     42 H42       -14.2845   -3.1230   52.3767 H       1  ZINC000433961694    0.0900
     43 H43       -14.5311   -1.5111   53.1046 H       1  ZINC000433961694    0.0800
     44 H44       -10.2777   -3.9124   60.0320 H       1  ZINC000433961694    0.0900
     45 H45        -9.0399   -4.3619   58.8346 H       1  ZINC000433961694    0.1000
     46 H46       -10.6024   -0.0372   58.9514 H       1  ZINC000433961694    0.1400
     47 H47       -11.2098    1.3576   60.8865 H       1  ZINC000433961694    0.1400
     48 H48        -9.4532   -1.5131   63.5121 H       1  ZINC000433961694    0.1500
     49 H49        -8.8497   -2.9141   61.5803 H       1  ZINC000433961694    0.1400
@<TRIPOS>BOND
     1     1     2    1
     2     1    31    1
     3     1    32    1
     4     1    33    1
     5     2    30    1
     6     2     3    2
     7     3     4    1
     8     3    19    1
     9     4     5    2
    10     4     6   am
    11     6    18    1
    12     6     7    1
    13     7     8    1
    14     7    34    1
    15     7    35    1
    16     8     9    1
    17     8    36    1
    18     8    37    1
    19     9    10    1
    20     9    11    1
    21     9    18    1
    22    11    12    1
    23    12    17   ar
    24    12    13   ar
    25    13    14   ar
    26    13    38    1
    27    14    15   ar
    28    14    39    1
    29    15    16   ar
    30    16    17   ar
    31    16    40    1
    32    17    41    1
    33    18    42    1
    34    18    43    1
    35    19    20    1
    36    20    21    1
    37    20    30    2
    38    21    22    1
    39    21    44    1
    40    21    45    1
    41    22    23    1
    42    23    29   ar
    43    23    24   ar
    44    24    25   ar
    45    24    46    1
    46    25    26   ar
    47    25    47    1
    48    26    27    1
    49    26    28   ar
    50    28    29   ar
    51    28    48    1
    52    29    49    1
@<TRIPOS>SUBSTRUCTURE
     1 ZINC000433961694        1 TEMP              0 ****  ****    0 ROOT


##########                                Name:     oleObject27.pdb
##########                DOCK_Rotatable_Bonds:                   9
##########                         Heavy_Atoms:                  35
##########                    Molecular_Weight:             513.466
##########                DOCK_Rotatable_Bonds:                   9
##########                       Formal_Charge:         0.000199873
##########                     HBond_Acceptors:                   8
##########                        HBond_Donors:                   1
##########                         Heavy_Atoms:                  35
##########                          Grid_Score:          -36.962559
##########                     Grid_vdw_energy:          -36.594685
##########                      Grid_es_energy:           -0.367873
##########           Internal_energy_repulsive:           27.023647

@<TRIPOS>MOLECULE
oleObject27.pdb
 65 68 1 0 0
SMALL
NO_CHARGES


@<TRIPOS>ATOM
      1 C          -9.1375    1.5677   52.1382 C.ar    1  UNL        -0.0620
      2 C         -10.1836    2.4070   52.5479 C.ar    1  UNL        -0.0590
      3 C         -11.3784    1.8684   53.0639 C.ar    1  UNL        -0.0456
      4 C         -11.5232    0.4632   53.1774 C.ar    1  UNL        -0.0187
      5 C         -10.4653   -0.3693   52.7503 C.ar    1  UNL        -0.0565
      6 C          -9.2802    0.1777   52.2366 C.ar    1  UNL        -0.0619
      7 C         -12.8116   -0.1603   53.7372 C.3     1  UNL         0.0921
      8 C         -13.5978   -0.9414   52.6796 C.ar    1  UNL         0.0681
      9 C         -14.8766   -1.4927   52.9444 C.ar    1  UNL        -0.0272
     10 C         -15.5218   -2.2065   51.9169 C.ar    1  UNL        -0.0559
     11 C         -14.8785   -2.3555   50.6796 C.ar    1  UNL        -0.0435
     12 C         -13.6057   -1.7901   50.5111 C.ar    1  UNL         0.0272
     13 N         -12.9803   -1.1054   51.4871 N.ar    1  UNL        -0.2587
     14 C         -15.5618   -1.3490   54.2985 C.3     1  UNL        -0.0379
     15 N         -12.5742   -1.0006   54.9199 N.am    1  UNL        -0.2865
     16 C         -12.2098   -2.3337   54.8612 C.2     1  UNL         0.3014
     17 O         -12.0625   -2.9141   53.7985 O.2     1  UNL        -0.2541
     18 N         -12.0299   -2.9631   56.0944 N.am    1  UNL        -0.2833
     19 C         -11.6375   -4.3945   56.2066 C.3     1  UNL         0.0284
     20 C         -11.8375   -5.0190   57.6090 C.3     1  UNL         0.0142
     21 N         -11.3359   -4.1525   58.6898 N.4     1  UNL        -0.2979
     22 C         -12.0441   -2.8580   58.6452 C.3     1  UNL         0.0142
     23 C         -11.8331   -2.1231   57.3014 C.3     1  UNL         0.0284
     24 C          -9.8558   -4.0772   58.7345 C.3     1  UNL         0.0223
     25 C          -9.3175   -3.4395   60.0311 C.3     1  UNL         0.0661
     26 O          -9.5041   -2.0171   59.9267 O.3     1  UNL        -0.3432
     27 C          -9.6290   -1.1799   61.0186 C.ar    1  UNL         0.0937
     28 C          -9.2536   -1.5832   62.3180 C.ar    1  UNL        -0.0288
     29 C          -9.3970   -0.7001   63.4011 C.ar    1  UNL        -0.0408
     30 C          -9.9149    0.5882   63.1945 C.ar    1  UNL         0.0422
     31 C         -10.2902    0.9969   61.9052 C.ar    1  UNL        -0.0221
     32 C         -10.1478    0.1161   60.8200 C.ar    1  UNL         0.0723
     33 CL        -10.6264    0.6576   59.2221 Cl      1  UNL        -0.0814
     34 CL        -10.0923    1.6862   64.5463 Cl      1  UNL        -0.0843
     35 C         -12.4907    2.8255   53.4793 C.3     1  UNL        -0.0394
     36 H          -8.2212    1.9941   51.7403 H       1  UNL         0.0623
     37 H         -10.0641    3.4832   52.4605 H       1  UNL         0.0626
     38 H         -10.5593   -1.4497   52.8082 H       1  UNL         0.0627
     39 H          -8.4753   -0.4761   51.9136 H       1  UNL         0.0623
     40 H         -13.4383    0.6674   54.0820 H       1  UNL         0.0625
     41 H         -16.5040   -2.6430   52.0750 H       1  UNL         0.0627
     42 H         -15.3528   -2.9022   49.8700 H       1  UNL         0.0639
     43 H         -13.0701   -1.8877   49.5676 H       1  UNL         0.0840
     44 H         -14.9068   -1.6875   55.1112 H       1  UNL         0.0280
     45 H         -16.4819   -1.9445   54.3518 H       1  UNL         0.0280
     46 H         -15.8344   -0.3044   54.4934 H       1  UNL         0.0280
     47 H         -12.7269   -0.5898   55.8302 H       1  UNL         0.1521
     48 H         -10.5792   -4.4778   55.9281 H       1  UNL         0.0484
     49 H         -12.2169   -4.9960   55.4954 H       1  UNL         0.0484
     50 H         -11.3468   -6.0000   57.6464 H       1  UNL         0.0447
     51 H         -12.9118   -5.1884   57.7589 H       1  UNL         0.0447
     52 H         -11.7359   -2.2083   59.4726 H       1  UNL         0.0447
     53 H         -13.1198   -3.0390   58.7686 H       1  UNL         0.0447
     54 H         -10.8125   -1.7211   57.2709 H       1  UNL         0.0484
     55 H         -12.5229   -1.2701   57.2664 H       1  UNL         0.0484
     56 H          -9.4730   -3.5098   57.8767 H       1  UNL         0.0455
     57 H          -9.4440   -5.0924   58.6649 H       1  UNL         0.0455
     58 H          -8.2518   -3.6775   60.1414 H       1  UNL         0.0586
     59 H          -9.8659   -3.8264   60.8986 H       1  UNL         0.0586
     60 H          -8.8506   -2.5740   62.5006 H       1  UNL         0.0652
     61 H          -9.1066   -1.0154   64.3994 H       1  UNL         0.0639
     62 H         -10.6908    1.9941   61.7463 H       1  UNL         0.0655
     63 H         -12.2463    3.8653   53.2285 H       1  UNL         0.0280
     64 H         -12.6640    2.7826   54.5618 H       1  UNL         0.0280
     65 H         -13.4321    2.5826   52.9713 H       1  UNL         0.0280
@<TRIPOS>BOND
     1     1     2   ar
     2     1     6   ar
     3     1    36    1
     4     2     3   ar
     5     2    37    1
     6     3     4   ar
     7     3    35    1
     8     4     5   ar
     9     4     7    1
    10     5     6   ar
    11     5    38    1
    12     6    39    1
    13     7     8    1
    14     7    15    1
    15     7    40    1
    16     8     9   ar
    17     8    13   ar
    18     9    10   ar
    19     9    14    1
    20    10    11   ar
    21    10    41    1
    22    11    12   ar
    23    11    42    1
    24    12    13   ar
    25    12    43    1
    26    14    44    1
    27    14    45    1
    28    14    46    1
    29    15    16   am
    30    15    47    1
    31    16    17    2
    32    16    18   am
    33    18    19    1
    34    18    23    1
    35    19    20    1
    36    19    48    1
    37    19    49    1
    38    20    21    1
    39    20    50    1
    40    20    51    1
    41    21    22    1
    42    21    24    1
    43    22    23    1
    44    22    52    1
    45    22    53    1
    46    23    54    1
    47    23    55    1
    48    24    25    1
    49    24    56    1
    50    24    57    1
    51    25    26    1
    52    25    58    1
    53    25    59    1
    54    26    27    1
    55    27    28   ar
    56    27    32   ar
    57    28    29   ar
    58    28    60    1
    59    29    30   ar
    60    29    61    1
    61    30    31   ar
    62    30    34    1
    63    31    32   ar
    64    31    62    1
    65    32    33    1
    66    35    63    1
    67    35    64    1
    68    35    65    1
@<TRIPOS>SUBSTRUCTURE
     1 UNL         1 TEMP              0 ****  ****    0 ROOT


##########                                Name:    ZINC000962855438
##########                DOCK_Rotatable_Bonds:                   7
##########                         Heavy_Atoms:                  27
##########                    Molecular_Weight:             370.448
##########                DOCK_Rotatable_Bonds:                   7
##########                       Formal_Charge:           0.0300005
##########                     HBond_Acceptors:                   6
##########                        HBond_Donors:                   2
##########                         Heavy_Atoms:                  27
##########                          Grid_Score:          -36.946629
##########                     Grid_vdw_energy:          -34.953861
##########                      Grid_es_energy:           -1.992766
##########           Internal_energy_repulsive:            9.912431

@<TRIPOS>MOLECULE
ZINC000962855438
 53 56 1 0 0
SMALL
USER_CHARGES


@<TRIPOS>ATOM
      1 C1        -11.5184    2.9285   59.4958 C.3     1  ZINC000962855438   -0.1100
      2 C2        -11.2808    1.5979   60.1622 C.2     1  ZINC000962855438   -0.1700
      3 C3        -10.9598    0.4150   59.3489 C.2     1  ZINC000962855438    0.5600
      4 O4        -11.1703    0.4252   58.1511 O.2     1  ZINC000962855438   -0.5400
      5 N5        -10.4325   -0.6803   59.9311 N.am    1  ZINC000962855438   -0.7100
      6 C6        -10.1144   -1.8591   59.1214 C.3     1  ZINC000962855438    0.1500
      7 H7         -9.4754   -1.5915   58.2800 H       1  ZINC000962855438    0.1200
      8 C8        -11.4056   -2.5640   58.6361 C.3     1  ZINC000962855438    0.1000
      9 N9        -11.0062   -3.9639   58.4030 N.am    1  ZINC000962855438   -0.6100
     10 C10       -11.6220   -4.8285   57.5725 C.2     1  ZINC000962855438    0.5800
     11 O11       -11.2033   -5.9642   57.4577 O.2     1  ZINC000962855438   -0.5200
     12 C12       -12.8042   -4.3967   56.8025 C.ar    1  ZINC000962855438   -0.1500
     13 C13       -14.0621   -4.3794   57.4051 C.ar    1  ZINC000962855438   -0.0600
     14 C14       -15.1685   -3.9773   56.6881 C.ar    1  ZINC000962855438   -0.1500
     15 C15       -15.0329   -3.5926   55.3636 C.ar    1  ZINC000962855438   -0.0500
     16 C16       -13.7963   -3.6087   54.7580 C.ar    1  ZINC000962855438   -0.1800
     17 C17       -12.6637   -3.9964   55.4613 C.ar    1  ZINC000962855438    0.1600
     18 O18       -11.5506   -3.9186   54.6862 O.3     1  ZINC000962855438   -0.2800
     19 C19       -11.9372   -3.8993   53.3016 C.3     1  ZINC000962855438    0.0700
     20 H20       -11.9808   -4.9111   52.8985 H       1  ZINC000962855438    0.0900
     21 C21       -10.9782   -3.0327   52.4829 C.3     1  ZINC000962855438   -0.1500
     22 C22       -13.3478   -3.2619   53.3512 C.3     1  ZINC000962855438   -0.1100
     23 C23        -9.8245   -4.2603   59.2259 C.3     1  ZINC000962855438    0.0700
     24 C24        -9.4594   -2.9678   59.9868 C.3     1  ZINC000962855438    0.0900
     25 H25        -8.3780   -2.8374   60.0288 H       1  ZINC000962855438    0.0900
     26 O26       -10.0166   -2.9814   61.3027 O.3     1  ZINC000962855438   -0.5600
     27 C27       -11.3613    1.4932   61.4855 C.2     1  ZINC000962855438   -0.0600
     28 C28       -11.1955    0.3894   62.5086 C.3     1  ZINC000962855438   -0.1000
     29 C29       -12.1373    1.1897   63.4219 C.3     1  ZINC000962855438   -0.1400
     30 C30       -11.6530    2.4258   62.6419 C.3     1  ZINC000962855438   -0.1100
     31 H31       -12.5769    3.0314   59.2570 H       1  ZINC000962855438    0.0700
     32 H32       -11.2182    3.7310   60.1697 H       1  ZINC000962855438    0.0700
     33 H33       -10.9319    2.9855   58.5788 H       1  ZINC000962855438    0.0700
     34 H34       -10.2636   -0.6879   60.8863 H       1  ZINC000962855438    0.4100
     35 H35       -12.1775   -2.5126   59.4038 H       1  ZINC000962855438    0.0800
     36 H36       -11.7597   -2.1114   57.7099 H       1  ZINC000962855438    0.0900
     37 H37       -14.1694   -4.6820   58.4362 H       1  ZINC000962855438    0.1400
     38 H38       -16.1407   -3.9626   57.1582 H       1  ZINC000962855438    0.1400
     39 H39       -15.9014   -3.2789   54.8035 H       1  ZINC000962855438    0.1300
     40 H40        -9.9730   -3.4502   52.5394 H       1  ZINC000962855438    0.0700
     41 H41       -11.3050   -3.0118   51.4433 H       1  ZINC000962855438    0.0800
     42 H42       -10.9736   -2.0187   52.8826 H       1  ZINC000962855438    0.0700
     43 H43       -14.0073   -3.7174   52.6127 H       1  ZINC000962855438    0.1000
     44 H44       -13.2927   -2.1826   53.2093 H       1  ZINC000962855438    0.1000
     45 H45       -10.0563   -5.0553   59.9346 H       1  ZINC000962855438    0.0800
     46 H46        -8.9939   -4.5609   58.5872 H       1  ZINC000962855438    0.0800
     47 H47        -9.6855   -2.2776   61.8772 H       1  ZINC000962855438    0.3900
     48 H48       -11.6083   -0.5672   62.1882 H       1  ZINC000962855438    0.0900
     49 H49       -10.1806    0.3040   62.8968 H       1  ZINC000962855438    0.1000
     50 H50       -13.1926    0.9585   63.2772 H       1  ZINC000962855438    0.0900
     51 H51       -11.8394    1.1892   64.4704 H       1  ZINC000962855438    0.0800
     52 H52       -10.7633    2.8891   63.0685 H       1  ZINC000962855438    0.1000
     53 H53       -12.4444    3.1447   62.4297 H       1  ZINC000962855438    0.0800
@<TRIPOS>BOND
     1     1     2    1
     2     1    31    1
     3     1    32    1
     4     1    33    1
     5     2     3    1
     6     2    27    2
     7     3     4    2
     8     3     5   am
     9     5     6    1
    10     5    34    1
    11     6     7    1
    12     6    24    1
    13     6     8    1
    14     8     9    1
    15     8    35    1
    16     8    36    1
    17     9    10   am
    18     9    23    1
    19    10    11    2
    20    10    12    1
    21    12    17   ar
    22    12    13   ar
    23    13    14   ar
    24    13    37    1
    25    14    15   ar
    26    14    38    1
    27    15    16   ar
    28    15    39    1
    29    16    22    1
    30    16    17   ar
    31    17    18    1
    32    18    19    1
    33    19    20    1
    34    19    21    1
    35    19    22    1
    36    21    40    1
    37    21    41    1
    38    21    42    1
    39    22    43    1
    40    22    44    1
    41    23    24    1
    42    23    45    1
    43    23    46    1
    44    24    25    1
    45    24    26    1
    46    26    47    1
    47    27    30    1
    48    27    28    1
    49    28    29    1
    50    28    48    1
    51    28    49    1
    52    29    30    1
    53    29    50    1
    54    29    51    1
    55    30    52    1
    56    30    53    1
@<TRIPOS>SUBSTRUCTURE
     1 ZINC000962855438        1 TEMP              0 ****  ****    0 ROOT


##########                                Name:    ZINC001061022329
##########                DOCK_Rotatable_Bonds:                   7
##########                         Heavy_Atoms:                  27
##########                    Molecular_Weight:             374.523
##########                DOCK_Rotatable_Bonds:                   7
##########                       Formal_Charge:           0.0800005
##########                     HBond_Acceptors:                   5
##########                        HBond_Donors:                   0
##########                         Heavy_Atoms:                  27
##########                          Grid_Score:          -36.925194
##########                     Grid_vdw_energy:          -34.811714
##########                      Grid_es_energy:           -2.113480
##########           Internal_energy_repulsive:           22.373177

@<TRIPOS>MOLECULE
ZINC001061022329
 61 64 1 0 0
SMALL
USER_CHARGES


@<TRIPOS>ATOM
      1 C1         -8.5680    2.1389   66.2569 C.3     1  ZINC001061022329   -0.1500
      2 C2         -9.2372    1.2285   65.2251 C.3     1  ZINC001061022329   -0.1200
      3 C3        -10.6872    1.6711   65.0188 C.3     1  ZINC001061022329    0.0800
      4 H4        -11.0951    2.0310   65.9634 H       1  ZINC001061022329    0.0600
      5 C5        -10.7347    2.7950   63.9817 C.3     1  ZINC001061022329   -0.1800
      6 O6        -11.4623    0.5632   64.5566 O.3     1  ZINC001061022329   -0.3500
      7 C7        -10.8583   -0.1612   63.4832 C.3     1  ZINC001061022329    0.0500
      8 C8        -11.9220   -0.5919   62.5064 C.2     1  ZINC001061022329    0.5200
      9 O9        -13.0853   -0.3225   62.7190 O.2     1  ZINC001061022329   -0.5100
     10 N10       -11.5807   -1.2763   61.3967 N.am    1  ZINC001061022329   -0.6100
     11 C11       -10.1756   -1.6117   61.1312 C.3     1  ZINC001061022329    0.1100
     12 C12        -9.7913   -1.0680   59.7500 C.3     1  ZINC001061022329   -0.1200
     13 C13       -10.8058   -1.5581   58.7198 C.3     1  ZINC001061022329   -0.0900
     14 C14       -10.4018   -1.2608   57.2692 C.3     1  ZINC001061022329    0.1200
     15 N15       -10.8753   -2.6264   56.9668 N.am    1  ZINC001061022329   -0.6400
     16 C16       -11.3287   -3.2444   55.8582 C.2     1  ZINC001061022329    0.5400
     17 O17       -11.6592   -4.4103   55.9059 O.2     1  ZINC001061022329   -0.5300
     18 C18       -11.4249   -2.4864   54.5592 C.3     1  ZINC001061022329   -0.0900
     19 H19       -10.5942   -1.7846   54.4859 H       1  ZINC001061022329    0.1000
     20 C20       -12.7474   -1.7177   54.5142 C.3     1  ZINC001061022329   -0.1000
     21 C21       -13.5744   -2.1887   53.3111 C.3     1  ZINC001061022329   -0.0600
     22 H22       -14.5436   -1.6904   53.2895 H       1  ZINC001061022329    0.0800
     23 C23       -13.7453   -3.6964   53.4244 C.2     1  ZINC001061022329   -0.1800
     24 C24       -12.5952   -4.3649   53.4634 C.2     1  ZINC001061022329   -0.1300
     25 C25       -11.3652   -3.4733   53.3861 C.3     1  ZINC001061022329   -0.0400
     26 H26       -10.4531   -4.0692   53.4160 H       1  ZINC001061022329    0.0900
     27 C27       -11.4503   -2.6739   52.0785 C.3     1  ZINC001061022329   -0.1100
     28 C28       -12.7798   -1.8891   52.0326 C.3     1  ZINC001061022329   -0.1100
     29 C29       -10.6520   -3.0438   58.3654 C.3     1  ZINC001061022329    0.1100
     30 C30       -12.2406   -1.1546   59.0499 C.3     1  ZINC001061022329   -0.1100
     31 C31       -12.6093   -1.7026   60.4388 C.3     1  ZINC001061022329    0.1100
     32 H32        -8.5862    3.1683   65.8992 H       1  ZINC001061022329    0.0500
     33 H33        -9.1059    2.0732   67.2025 H       1  ZINC001061022329    0.0600
     34 H34        -7.5350    1.8235   66.4039 H       1  ZINC001061022329    0.0600
     35 H35        -8.6991    1.2942   64.2795 H       1  ZINC001061022329    0.0800
     36 H36        -9.2189    0.1991   65.5828 H       1  ZINC001061022329    0.0700
     37 H37       -11.7676    3.1103   63.8347 H       1  ZINC001061022329    0.0600
     38 H38       -10.1435    3.6400   64.3343 H       1  ZINC001061022329    0.0700
     39 H39       -10.3268    2.4351   63.0371 H       1  ZINC001061022329    0.0700
     40 H40       -10.1356    0.4773   62.9751 H       1  ZINC001061022329    0.0800
     41 H41       -10.3507   -1.0410   63.8789 H       1  ZINC001061022329    0.0800
     42 H42        -9.5413   -1.1572   61.8923 H       1  ZINC001061022329    0.0900
     43 H43       -10.0492   -2.6943   61.1459 H       1  ZINC001061022329    0.0800
     44 H44        -9.7935    0.0217   59.7738 H       1  ZINC001061022329    0.0800
     45 H45        -8.7972   -1.4256   59.4813 H       1  ZINC001061022329    0.0800
     46 H46       -10.9947   -0.4758   56.7997 H       1  ZINC001061022329    0.0800
     47 H47        -9.3291   -1.1265   57.1302 H       1  ZINC001061022329    0.0900
     48 H48       -13.3054   -1.9010   55.4325 H       1  ZINC001061022329    0.0700
     49 H49       -12.5443   -0.6509   54.4199 H       1  ZINC001061022329    0.0700
     50 H50       -14.7103   -4.1792   53.4689 H       1  ZINC001061022329    0.1200
     51 H51       -12.5402   -5.4406   53.5431 H       1  ZINC001061022329    0.1200
     52 H52       -10.6195   -1.9701   52.0284 H       1  ZINC001061022329    0.0700
     53 H53       -11.3986   -3.3574   51.2310 H       1  ZINC001061022329    0.0700
     54 H54       -13.3584   -2.2055   51.1647 H       1  ZINC001061022329    0.0700
     55 H55       -12.5692   -0.8222   51.9591 H       1  ZINC001061022329    0.0700
     56 H56        -9.6535   -3.4393   58.5523 H       1  ZINC001061022329    0.0900
     57 H57       -11.4437   -3.6760   58.7674 H       1  ZINC001061022329    0.0800
     58 H58       -12.3225   -0.0677   59.0510 H       1  ZINC001061022329    0.0800
     59 H59       -12.9173   -1.5713   58.3038 H       1  ZINC001061022329    0.0800
     60 H60       -12.6535   -2.7911   60.4021 H       1  ZINC001061022329    0.0700
     61 H61       -13.5777   -1.3055   60.7430 H       1  ZINC001061022329    0.1000
@<TRIPOS>BOND
     1     1     2    1
     2     1    32    1
     3     1    33    1
     4     1    34    1
     5     2     3    1
     6     2    35    1
     7     2    36    1
     8     3     4    1
     9     3     5    1
    10     3     6    1
    11     5    37    1
    12     5    38    1
    13     5    39    1
    14     6     7    1
    15     7     8    1
    16     7    40    1
    17     7    41    1
    18     8     9    2
    19     8    10   am
    20    10    31    1
    21    10    11    1
    22    11    12    1
    23    11    42    1
    24    11    43    1
    25    12    13    1
    26    12    44    1
    27    12    45    1
    28    13    29    1
    29    13    14    1
    30    13    30    1
    31    14    15    1
    32    14    46    1
    33    14    47    1
    34    15    16   am
    35    15    29    1
    36    16    17    2
    37    16    18    1
    38    18    19    1
    39    18    25    1
    40    18    20    1
    41    20    21    1
    42    20    48    1
    43    20    49    1
    44    21    22    1
    45    21    28    1
    46    21    23    1
    47    23    24    2
    48    23    50    1
    49    24    25    1
    50    24    51    1
    51    25    26    1
    52    25    27    1
    53    27    28    1
    54    27    52    1
    55    27    53    1
    56    28    54    1
    57    28    55    1
    58    29    56    1
    59    29    57    1
    60    30    31    1
    61    30    58    1
    62    30    59    1
    63    31    60    1
    64    31    61    1
@<TRIPOS>SUBSTRUCTURE
     1 ZINC001061022329        1 TEMP              0 ****  ****    0 ROOT


##########                                Name:    ZINC001707804910
##########                DOCK_Rotatable_Bonds:                   4
##########                         Heavy_Atoms:                  26
##########                    Molecular_Weight:             358.403
##########                DOCK_Rotatable_Bonds:                   4
##########                       Formal_Charge:          -0.0399996
##########                     HBond_Acceptors:                  10
##########                        HBond_Donors:                   0
##########                         Heavy_Atoms:                  26
##########                          Grid_Score:          -36.822460
##########                     Grid_vdw_energy:          -36.332695
##########                      Grid_es_energy:           -0.489766
##########           Internal_energy_repulsive:           10.150149

@<TRIPOS>MOLECULE
ZINC001707804910
 48 51 1 0 0
SMALL
USER_CHARGES


@<TRIPOS>ATOM
      1 C1        -15.9856   -1.1207   65.2819 C.3     1  ZINC001707804910   -0.0700
      2 C2        -15.1226   -1.0619   64.0478 C.2     1  ZINC001707804910    0.0700
      3 N3        -15.2412   -1.8250   62.9917 N.2     1  ZINC001707804910   -0.2800
      4 N4        -14.2531   -1.4541   62.0705 N.pl3   1  ZINC001707804910   -0.3700
      5 C5        -14.0331   -2.0563   60.7533 C.3     1  ZINC001707804910    0.0900
      6 C6        -13.5397   -0.4440   62.6108 C.2     1  ZINC001707804910    0.0500
      7 C7        -12.3758    0.2651   61.9677 C.3     1  ZINC001707804910    0.1800
      8 N8        -11.1217   -0.3222   62.4456 N.pl3   1  ZINC001707804910   -0.4600
      9 C9        -10.4863   -0.0623   63.6282 C.2     1  ZINC001707804910    0.1900
     10 C10       -10.9477    0.8926   64.6989 C.3     1  ZINC001707804910   -0.0700
     11 N11        -9.4086   -0.7938   63.6581 N.2     1  ZINC001707804910   -0.2800
     12 N12        -9.3204   -1.4928   62.5831 N.2     1  ZINC001707804910   -0.3000
     13 C13       -10.3483   -1.2465   61.8056 C.2     1  ZINC001707804910    0.3500
     14 N14       -10.5971   -1.8118   60.5651 N.3     1  ZINC001707804910   -0.4600
     15 C15        -9.9499   -3.1263   60.4458 C.3     1  ZINC001707804910    0.0200
     16 C16       -10.2989   -3.7396   59.0871 C.3     1  ZINC001707804910    0.0700
     17 O17        -9.8982   -2.8425   58.0478 O.3     1  ZINC001707804910   -0.3600
     18 C18       -10.5101   -1.5527   58.1329 C.3     1  ZINC001707804910    0.2000
     19 H19       -11.5917   -1.6566   58.0469 H       1  ZINC001707804910    0.1000
     20 C20        -9.9982   -0.6783   57.0174 C.2     1  ZINC001707804910    0.1600
     21 N21        -9.0050    0.1615   57.0900 N.2     1  ZINC001707804910   -0.2500
     22 N22        -8.8468    0.7355   55.9494 N.2     1  ZINC001707804910   -0.2900
     23 C23        -9.7338    0.2814   55.1103 C.2     1  ZINC001707804910    0.1700
     24 C24        -9.8919    0.6940   53.6695 C.3     1  ZINC001707804910   -0.0600
     25 O25       -10.4788   -0.6260   55.7638 O.3     1  ZINC001707804910   -0.2200
     26 C26       -10.1633   -0.9174   59.4820 C.3     1  ZINC001707804910    0.0400
     27 C27       -14.0603   -0.1782   63.8313 C.2     1  ZINC001707804910   -0.2300
     28 H28       -16.8423   -0.4584   65.1580 H       1  ZINC001707804910    0.0800
     29 H29       -16.3348   -2.1422   65.4327 H       1  ZINC001707804910    0.0700
     30 H30       -15.4038   -0.8042   66.1475 H       1  ZINC001707804910    0.0800
     31 H31       -14.7033   -1.5964   60.0269 H       1  ZINC001707804910    0.0800
     32 H32       -12.9995   -1.8940   60.4476 H       1  ZINC001707804910    0.0900
     33 H33       -14.2329   -3.1266   60.8051 H       1  ZINC001707804910    0.0900
     34 H34       -12.4381    0.1573   60.8848 H       1  ZINC001707804910    0.1100
     35 H35       -12.4049    1.3227   62.2298 H       1  ZINC001707804910    0.1200
     36 H36       -11.6684    0.3924   65.3458 H       1  ZINC001707804910    0.0900
     37 H37       -10.0915    1.2160   65.2908 H       1  ZINC001707804910    0.1000
     38 H38       -11.4169    1.7600   64.2346 H       1  ZINC001707804910    0.0700
     39 H39        -8.8692   -3.0086   60.5252 H       1  ZINC001707804910    0.0700
     40 H40       -10.3048   -3.7804   61.2423 H       1  ZINC001707804910    0.0900
     41 H41        -9.7753   -4.6885   58.9708 H       1  ZINC001707804910    0.1200
     42 H42       -11.3743   -3.9071   59.0288 H       1  ZINC001707804910    0.0700
     43 H43        -9.2800    0.0500   53.0379 H       1  ZINC001707804910    0.1000
     44 H44       -10.9380    0.6014   53.3776 H       1  ZINC001707804910    0.1000
     45 H45        -9.5720    1.7292   53.5509 H       1  ZINC001707804910    0.1100
     46 H46       -10.6739    0.0411   59.5749 H       1  ZINC001707804910    0.1000
     47 H47        -9.0859   -0.7642   59.5459 H       1  ZINC001707804910    0.0800
     48 H48       -13.7128    0.5784   64.5192 H       1  ZINC001707804910    0.1500
@<TRIPOS>BOND
     1     1     2    1
     2     1    28    1
     3     1    29    1
     4     1    30    1
     5     2    27    1
     6     2     3    2
     7     3     4    1
     8     4     5    1
     9     4     6    1
    10     5    31    1
    11     5    32    1
    12     5    33    1
    13     6     7    1
    14     6    27    2
    15     7     8    1
    16     7    34    1
    17     7    35    1
    18     8    13    1
    19     8     9    1
    20     9    10    1
    21     9    11    2
    22    10    36    1
    23    10    37    1
    24    10    38    1
    25    11    12    1
    26    12    13    2
    27    13    14    1
    28    14    26    1
    29    14    15    1
    30    15    16    1
    31    15    39    1
    32    15    40    1
    33    16    17    1
    34    16    41    1
    35    16    42    1
    36    17    18    1
    37    18    19    1
    38    18    20    1
    39    18    26    1
    40    20    25    1
    41    20    21    2
    42    21    22    1
    43    22    23    2
    44    23    24    1
    45    23    25    1
    46    24    43    1
    47    24    44    1
    48    24    45    1
    49    26    46    1
    50    26    47    1
    51    27    48    1
@<TRIPOS>SUBSTRUCTURE
     1 ZINC001707804910        1 TEMP              0 ****  ****    0 ROOT


##########                                Name:    ZINC001362587626
##########                DOCK_Rotatable_Bonds:                   9
##########                         Heavy_Atoms:                  25
##########                    Molecular_Weight:             346.346
##########                DOCK_Rotatable_Bonds:                   9
##########                       Formal_Charge:        -4.02331e-07
##########                     HBond_Acceptors:                  10
##########                        HBond_Donors:                   2
##########                         Heavy_Atoms:                  25
##########                          Grid_Score:          -36.785110
##########                     Grid_vdw_energy:          -31.432283
##########                      Grid_es_energy:           -5.352827
##########           Internal_energy_repulsive:            6.176749

@<TRIPOS>MOLECULE
ZINC001362587626
 43 45 1 0 0
SMALL
USER_CHARGES


@<TRIPOS>ATOM
      1 C1        -11.4283    2.3427   64.3884 C.3     1  ZINC001362587626   -0.1600
      2 C2        -10.6225    1.0644   64.6282 C.3     1  ZINC001362587626    0.1300
      3 H3        -11.0158    0.5458   65.5026 H       1  ZINC001362587626    0.1200
      4 N4         -9.2168    1.4086   64.8558 N.am    1  ZINC001362587626   -0.7100
      5 C5         -8.3726    0.4908   65.3670 C.2     1  ZINC001362587626    0.5100
      6 O6         -8.7762   -0.6205   65.6371 O.2     1  ZINC001362587626   -0.5000
      7 C7         -6.9269    0.8455   65.6028 C.3     1  ZINC001362587626    0.1000
      8 N8         -6.8489    2.0801   66.3876 N.pl3   1  ZINC001362587626   -0.3100
      9 C9         -7.6833    2.4533   67.3756 C.2     1  ZINC001362587626    0.1600
     10 N10        -7.2587    3.6158   67.8075 N.2     1  ZINC001362587626   -0.3000
     11 N11        -6.2180    3.9395   67.1206 N.2     1  ZINC001362587626   -0.0700
     12 N12        -5.9642    3.0112   66.2654 N.2     1  ZINC001362587626   -0.0700
     13 C13       -10.7313    0.1683   63.4215 C.2     1  ZINC001362587626    0.5100
     14 O14       -11.6914   -0.5618   63.2929 O.2     1  ZINC001362587626   -0.5200
     15 N15        -9.7618    0.1781   62.4852 N.am    1  ZINC001362587626   -0.6600
     16 C16        -9.8630   -0.6551   61.3634 C.ar    1  ZINC001362587626    0.1000
     17 C17        -9.4815   -1.9872   61.4510 C.ar    1  ZINC001362587626   -0.1000
     18 C18        -9.5820   -2.8080   60.3451 C.ar    1  ZINC001362587626   -0.1900
     19 C19       -10.0634   -2.3017   59.1466 C.ar    1  ZINC001362587626    0.1200
     20 O20       -10.1616   -3.1104   58.0579 O.3     1  ZINC001362587626   -0.2800
     21 C21       -11.4467   -3.6699   57.7792 C.3     1  ZINC001362587626    0.0100
     22 C22       -12.1062   -3.1090   56.5052 C.3     1  ZINC001362587626    0.0200
     23 O23       -11.4706   -4.2112   55.8270 O.3     1  ZINC001362587626   -0.3700
     24 C24       -11.3905   -5.0112   57.0238 C.3     1  ZINC001362587626    0.0400
     25 C25       -10.4451   -0.9710   59.0585 C.ar    1  ZINC001362587626   -0.1300
     26 C26       -10.3502   -0.1505   60.1651 C.ar    1  ZINC001362587626   -0.0800
     27 H27       -11.0350    2.8615   63.5140 H       1  ZINC001362587626    0.0700
     28 H28       -12.4741    2.0866   64.2191 H       1  ZINC001362587626    0.0800
     29 H29       -11.3497    2.9909   65.2612 H       1  ZINC001362587626    0.0800
     30 H30        -8.8938    2.2970   64.6386 H       1  ZINC001362587626    0.4100
     31 H31        -6.4387    0.0373   66.1473 H       1  ZINC001362587626    0.1500
     32 H32        -6.4279    0.9917   64.6449 H       1  ZINC001362587626    0.1400
     33 H33        -8.5372    1.9023   67.7411 H       1  ZINC001362587626    0.2400
     34 H34        -8.9942    0.7619   62.5881 H       1  ZINC001362587626    0.4100
     35 H35        -9.1060   -2.3813   62.3837 H       1  ZINC001362587626    0.1300
     36 H36        -9.2852   -3.8442   60.4130 H       1  ZINC001362587626    0.1400
     37 H37       -12.1038   -3.6816   58.6487 H       1  ZINC001362587626    0.0900
     38 H38       -13.1948   -3.1637   56.5116 H       1  ZINC001362587626    0.1000
     39 H39       -11.7285   -2.1309   56.2071 H       1  ZINC001362587626    0.1000
     40 H40       -10.4451   -5.5418   57.1370 H       1  ZINC001362587626    0.1000
     41 H41       -12.2605   -5.6468   57.1884 H       1  ZINC001362587626    0.1000
     42 H42       -10.8199   -0.5775   58.1252 H       1  ZINC001362587626    0.1400
     43 H43       -10.6479    0.8855   60.0965 H       1  ZINC001362587626    0.1500
@<TRIPOS>BOND
     1     1     2    1
     2     1    27    1
     3     1    28    1
     4     1    29    1
     5     2     3    1
     6     2     4    1
     7     2    13    1
     8     4     5   am
     9     4    30    1
    10     5     6    2
    11     5     7    1
    12     7     8    1
    13     7    31    1
    14     7    32    1
    15     8    12    1
    16     8     9    1
    17     9    10    2
    18     9    33    1
    19    10    11    1
    20    11    12    2
    21    13    14    2
    22    13    15   am
    23    15    16    1
    24    15    34    1
    25    16    26   ar
    26    16    17   ar
    27    17    18   ar
    28    17    35    1
    29    18    19   ar
    30    18    36    1
    31    19    20    1
    32    19    25   ar
    33    20    21    1
    34    21    24    1
    35    21    22    1
    36    21    37    1
    37    22    23    1
    38    22    38    1
    39    22    39    1
    40    23    24    1
    41    24    40    1
    42    24    41    1
    43    25    26   ar
    44    25    42    1
    45    26    43    1
@<TRIPOS>SUBSTRUCTURE
     1 ZINC001362587626        1 TEMP              0 ****  ****    0 ROOT


##########                                Name:    ZINC001347442583
##########                DOCK_Rotatable_Bonds:                   9
##########                         Heavy_Atoms:                  27
##########                    Molecular_Weight:             370.492
##########                DOCK_Rotatable_Bonds:                   9
##########                       Formal_Charge:          -0.0400009
##########                     HBond_Acceptors:                   5
##########                        HBond_Donors:                   1
##########                         Heavy_Atoms:                  27
##########                          Grid_Score:          -36.784290
##########                     Grid_vdw_energy:          -36.266167
##########                      Grid_es_energy:           -0.518124
##########           Internal_energy_repulsive:           14.537629

@<TRIPOS>MOLECULE
ZINC001347442583
 57 60 1 0 0
SMALL
USER_CHARGES


@<TRIPOS>ATOM
      1 O1         -8.6996   -1.1721   51.9640 O.2     1  ZINC001347442583   -0.5400
      2 C2         -9.4673   -0.6325   52.7324 C.2     1  ZINC001347442583    0.5400
      3 C3         -9.0767    0.6579   53.4057 C.3     1  ZINC001347442583   -0.1400
      4 C4         -8.9820    1.7706   52.3598 C.3     1  ZINC001347442583   -0.1000
      5 C5         -7.5272    2.2262   52.2304 C.3     1  ZINC001347442583   -0.1100
      6 C6         -6.7431    1.2014   51.4082 C.3     1  ZINC001347442583   -0.0800
      7 C7         -5.3789    1.7543   51.0851 C.ar    1  ZINC001347442583   -0.0800
      8 C8         -4.6599    2.4300   52.0533 C.ar    1  ZINC001347442583   -0.1200
      9 C9         -3.4086    2.9372   51.7568 C.ar    1  ZINC001347442583   -0.1200
     10 C10        -2.8761    2.7684   50.4924 C.ar    1  ZINC001347442583   -0.1300
     11 C11        -3.5947    2.0918   49.5245 C.ar    1  ZINC001347442583   -0.1200
     12 C12        -4.8442    1.5808   49.8222 C.ar    1  ZINC001347442583   -0.1200
     13 N13       -10.6720   -1.1839   52.9797 N.am    1  ZINC001347442583   -0.6300
     14 C14       -11.3040   -2.4409   52.4528 C.3     1  ZINC001347442583    0.1200
     15 H15       -10.7042   -3.0145   51.7463 H       1  ZINC001347442583    0.1200
     16 C16       -12.6511   -1.8879   51.8977 C.3     1  ZINC001347442583   -0.1300
     17 C17       -12.9865   -0.7228   52.8612 C.3     1  ZINC001347442583   -0.1300
     18 C18       -11.7937   -0.7340   53.8722 C.3     1  ZINC001347442583    0.1200
     19 H19       -11.6263    0.1977   54.4124 H       1  ZINC001347442583    0.1200
     20 C20       -12.0272   -1.9933   54.7602 C.3     1  ZINC001347442583    0.1300
     21 H21       -13.0643   -2.0424   55.0919 H       1  ZINC001347442583    0.1100
     22 N22       -11.1189   -1.9900   55.9097 N.am    1  ZINC001347442583   -0.7200
     23 C23       -11.3916   -2.7538   56.9861 C.2     1  ZINC001347442583    0.5300
     24 O24       -12.3880   -3.4450   57.0026 O.2     1  ZINC001347442583   -0.5300
     25 C25       -10.4581   -2.7489   58.1693 C.3     1  ZINC001347442583   -0.1500
     26 H26        -9.6410   -3.4545   58.0194 H       1  ZINC001347442583    0.1100
     27 C27        -9.9122   -1.3198   58.4366 C.3     1  ZINC001347442583   -0.1400
     28 C28        -9.6421   -1.3885   59.9608 C.3     1  ZINC001347442583    0.0500
     29 O29       -10.7042   -2.1952   60.4939 O.3     1  ZINC001347442583   -0.3800
     30 C30       -11.2225   -3.0623   59.4734 C.3     1  ZINC001347442583    0.0700
     31 C31       -11.6629   -3.1739   53.7805 C.3     1  ZINC001347442583   -0.1400
     32 H32        -9.8286    0.9216   54.1497 H       1  ZINC001347442583    0.0900
     33 H33        -8.1100    0.5349   53.8939 H       1  ZINC001347442583    0.0900
     34 H34        -9.3325    1.3961   51.3981 H       1  ZINC001347442583    0.0700
     35 H35        -9.6005    2.6132   52.6688 H       1  ZINC001347442583    0.0700
     36 H36        -7.4927    3.1949   51.7319 H       1  ZINC001347442583    0.0600
     37 H37        -7.0836    2.3120   53.2224 H       1  ZINC001347442583    0.0600
     38 H38        -6.6355    0.2809   51.9820 H       1  ZINC001347442583    0.0700
     39 H39        -7.2788    0.9920   50.4823 H       1  ZINC001347442583    0.0700
     40 H40        -5.0759    2.5620   53.0411 H       1  ZINC001347442583    0.1200
     41 H41        -2.8472    3.4658   52.5130 H       1  ZINC001347442583    0.1200
     42 H42        -1.8988    3.1652   50.2605 H       1  ZINC001347442583    0.1200
     43 H43        -3.1789    1.9601   48.5364 H       1  ZINC001347442583    0.1200
     44 H44        -5.4057    1.0523   49.0660 H       1  ZINC001347442583    0.1200
     45 H45       -12.5247   -1.5198   50.8795 H       1  ZINC001347442583    0.0700
     46 H46       -13.4259   -2.6536   51.9368 H       1  ZINC001347442583    0.0800
     47 H47       -13.0264    0.2230   52.3207 H       1  ZINC001347442583    0.0800
     48 H48       -13.9274   -0.9108   53.3781 H       1  ZINC001347442583    0.0800
     49 H49       -10.3214   -1.4381   55.8959 H       1  ZINC001347442583    0.4000
     50 H50        -8.9910   -1.1410   57.8821 H       1  ZINC001347442583    0.0900
     51 H51       -10.6615   -0.5631   58.2042 H       1  ZINC001347442583    0.0900
     52 H52        -8.6773   -1.8579   60.1532 H       1  ZINC001347442583    0.0700
     53 H53        -9.6710   -0.3894   60.3956 H       1  ZINC001347442583    0.0900
     54 H54       -12.2860   -2.8708   59.3307 H       1  ZINC001347442583    0.0700
     55 H55       -11.0678   -4.1028   59.7587 H       1  ZINC001347442583    0.0800
     56 H56       -12.5267   -3.8188   53.6184 H       1  ZINC001347442583    0.0900
     57 H57       -10.8210   -3.7480   54.1674 H       1  ZINC001347442583    0.0800
@<TRIPOS>BOND
     1     1     2    2
     2     2     3    1
     3     2    13   am
     4     3     4    1
     5     3    32    1
     6     3    33    1
     7     4     5    1
     8     4    34    1
     9     4    35    1
    10     5     6    1
    11     5    36    1
    12     5    37    1
    13     6     7    1
    14     6    38    1
    15     6    39    1
    16     7    12   ar
    17     7     8   ar
    18     8     9   ar
    19     8    40    1
    20     9    10   ar
    21     9    41    1
    22    10    11   ar
    23    10    42    1
    24    11    12   ar
    25    11    43    1
    26    12    44    1
    27    13    18    1
    28    13    14    1
    29    14    15    1
    30    14    31    1
    31    14    16    1
    32    16    17    1
    33    16    45    1
    34    16    46    1
    35    17    18    1
    36    17    47    1
    37    17    48    1
    38    18    19    1
    39    18    20    1
    40    20    21    1
    41    20    22    1
    42    20    31    1
    43    22    23   am
    44    22    49    1
    45    23    24    2
    46    23    25    1
    47    25    26    1
    48    25    30    1
    49    25    27    1
    50    27    28    1
    51    27    50    1
    52    27    51    1
    53    28    29    1
    54    28    52    1
    55    28    53    1
    56    29    30    1
    57    30    54    1
    58    30    55    1
    59    31    56    1
    60    31    57    1
@<TRIPOS>SUBSTRUCTURE
     1 ZINC001347442583        1 TEMP              0 ****  ****    0 ROOT


##########                                Name:    ZINC000013809319
##########                DOCK_Rotatable_Bonds:                  10
##########                         Heavy_Atoms:                  30
##########                    Molecular_Weight:             407.469
##########                DOCK_Rotatable_Bonds:                  10
##########                       Formal_Charge:         -0.00999978
##########                     HBond_Acceptors:                   7
##########                        HBond_Donors:                   1
##########                         Heavy_Atoms:                  30
##########                          Grid_Score:          -36.782097
##########                     Grid_vdw_energy:          -34.658638
##########                      Grid_es_energy:           -2.123460
##########           Internal_energy_repulsive:           16.130375

@<TRIPOS>MOLECULE
ZINC000013809319
 55 57 1 0 0
SMALL
USER_CHARGES


@<TRIPOS>ATOM
      1 C1        -16.5611   -1.8053   49.9135 C.3     1  ZINC000013809319   -0.1500
      2 C2        -15.3416   -1.7575   50.8363 C.3     1  ZINC000013809319    0.0500
      3 O3        -15.0802   -3.0656   51.3485 O.3     1  ZINC000013809319   -0.3100
      4 C4        -14.3165   -3.1480   52.4682 C.ar    1  ZINC000013809319    0.1500
      5 C5        -12.9364   -3.0170   52.3769 C.ar    1  ZINC000013809319   -0.2200
      6 C6        -12.1584   -3.0996   53.5111 C.ar    1  ZINC000013809319   -0.0300
      7 C7        -12.7583   -3.3150   54.7528 C.ar    1  ZINC000013809319   -0.1100
      8 C8        -11.9259   -3.4038   55.9734 C.2     1  ZINC000013809319    0.2300
      9 C9        -11.1515   -2.3256   56.3699 C.2     1  ZINC000013809319   -0.2900
     10 C10       -10.3763   -2.4526   57.5357 C.2     1  ZINC000013809319    0.5300
     11 O11        -9.6794   -1.5287   57.9229 O.2     1  ZINC000013809319   -0.5400
     12 N12       -10.4182   -3.6158   58.2185 N.am    1  ZINC000013809319   -0.5100
     13 C13        -9.6206   -3.7748   59.4369 C.3     1  ZINC000013809319    0.0700
     14 C14       -10.1486   -2.8539   60.5067 C.2     1  ZINC000013809319    0.5000
     15 O15       -11.2742   -3.0022   60.9331 O.2     1  ZINC000013809319   -0.5200
     16 N16        -9.3698   -1.8655   60.9894 N.am    1  ZINC000013809319   -0.7200
     17 C17        -9.8825   -0.9713   62.0306 C.3     1  ZINC000013809319    0.1300
     18 C18       -10.8492    0.0369   61.4062 C.3     1  ZINC000013809319   -0.0800
     19 C19       -11.8916    0.4284   62.4216 C.ar    1  ZINC000013809319   -0.1200
     20 C20       -13.2313    0.2340   62.1471 C.ar    1  ZINC000013809319   -0.0800
     21 C21       -14.1883    0.5937   63.0784 C.ar    1  ZINC000013809319   -0.1500
     22 C22       -13.8071    1.1479   64.2861 C.ar    1  ZINC000013809319   -0.0800
     23 C23       -12.4683    1.3440   64.5657 C.ar    1  ZINC000013809319   -0.2100
     24 C24       -11.5061    0.9793   63.6354 C.ar    1  ZINC000013809319    0.1300
     25 O25       -10.1887    1.1712   63.9079 O.3     1  ZINC000013809319   -0.3100
     26 C26        -9.8658    1.7524   65.1729 C.3     1  ZINC000013809319    0.0300
     27 C27       -11.1908   -4.6321   57.7850 C.2     1  ZINC000013809319    0.3900
     28 N28       -11.9200   -4.5294   56.7086 N.2     1  ZINC000013809319   -0.5300
     29 C29       -14.1452   -3.4461   54.8408 C.ar    1  ZINC000013809319   -0.0500
     30 C30       -14.9175   -3.3572   53.7032 C.ar    1  ZINC000013809319   -0.1600
     31 H31       -16.3640   -2.4868   49.0859 H       1  ZINC000013809319    0.0700
     32 H32       -17.4275   -2.1558   50.4743 H       1  ZINC000013809319    0.0700
     33 H33       -16.7605   -0.8075   49.5228 H       1  ZINC000013809319    0.0800
     34 H34       -14.4751   -1.4069   50.2754 H       1  ZINC000013809319    0.0600
     35 H35       -15.5387   -1.0759   51.6638 H       1  ZINC000013809319    0.0600
     36 H36       -12.4728   -2.8507   51.4156 H       1  ZINC000013809319    0.1300
     37 H37       -11.0855   -2.9981   53.4393 H       1  ZINC000013809319    0.1400
     38 H38       -11.1432   -1.4100   55.7971 H       1  ZINC000013809319    0.1600
     39 H39        -9.6856   -4.8069   59.7816 H       1  ZINC000013809319    0.1300
     40 H40        -8.5804   -3.5271   59.2253 H       1  ZINC000013809319    0.1300
     41 H41        -8.4699   -1.7461   60.6475 H       1  ZINC000013809319    0.4000
     42 H42       -10.4060   -1.5564   62.7866 H       1  ZINC000013809319    0.0700
     43 H43        -9.0516   -0.4391   62.4938 H       1  ZINC000013809319    0.0700
     44 H44       -10.2975    0.9228   61.0918 H       1  ZINC000013809319    0.0800
     45 H45       -11.3358   -0.4139   60.5412 H       1  ZINC000013809319    0.0800
     46 H46       -13.5316   -0.1987   61.2044 H       1  ZINC000013809319    0.1300
     47 H47       -15.2354    0.4416   62.8615 H       1  ZINC000013809319    0.1300
     48 H48       -14.5564    1.4283   65.0116 H       1  ZINC000013809319    0.1300
     49 H49       -12.1710    1.7773   65.5092 H       1  ZINC000013809319    0.1300
     50 H50       -10.2403    1.1134   65.9726 H       1  ZINC000013809319    0.0600
     51 H51        -8.7839    1.8500   65.2623 H       1  ZINC000013809319    0.1000
     52 H52       -10.3269    2.7371   65.2485 H       1  ZINC000013809319    0.0600
     53 H53       -11.2094   -5.5546   58.3464 H       1  ZINC000013809319    0.2000
     54 H54       -14.6126   -3.6128   55.8000 H       1  ZINC000013809319    0.1400
     55 H55       -15.9906   -3.4581   53.7706 H       1  ZINC000013809319    0.1400
@<TRIPOS>BOND
     1     1     2    1
     2     1    31    1
     3     1    32    1
     4     1    33    1
     5     2     3    1
     6     2    34    1
     7     2    35    1
     8     3     4    1
     9     4    30   ar
    10     4     5   ar
    11     5     6   ar
    12     5    36    1
    13     6     7   ar
    14     6    37    1
    15     7     8    1
    16     7    29   ar
    17     8    28    1
    18     8     9    2
    19     9    10    1
    20     9    38    1
    21    10    11    2
    22    10    12   am
    23    12    13    1
    24    12    27    1
    25    13    14    1
    26    13    39    1
    27    13    40    1
    28    14    15    2
    29    14    16   am
    30    16    17    1
    31    16    41    1
    32    17    18    1
    33    17    42    1
    34    17    43    1
    35    18    19    1
    36    18    44    1
    37    18    45    1
    38    19    24   ar
    39    19    20   ar
    40    20    21   ar
    41    20    46    1
    42    21    22   ar
    43    21    47    1
    44    22    23   ar
    45    22    48    1
    46    23    24   ar
    47    23    49    1
    48    24    25    1
    49    25    26    1
    50    26    50    1
    51    26    51    1
    52    26    52    1
    53    27    28    2
    54    27    53    1
    55    29    30   ar
    56    29    54    1
    57    30    55    1
@<TRIPOS>SUBSTRUCTURE
     1 ZINC000013809319        1 TEMP              0 ****  ****    0 ROOT


##########                                Name:    ZINC001109082135
##########                DOCK_Rotatable_Bonds:                   9
##########                         Heavy_Atoms:                  27
##########                    Molecular_Weight:             373.455
##########                DOCK_Rotatable_Bonds:                   9
##########                       Formal_Charge:          -0.0100003
##########                     HBond_Acceptors:                   8
##########                        HBond_Donors:                   3
##########                         Heavy_Atoms:                  27
##########                          Grid_Score:          -36.755241
##########                     Grid_vdw_energy:          -35.610218
##########                      Grid_es_energy:           -1.145024
##########           Internal_energy_repulsive:           17.019106

@<TRIPOS>MOLECULE
ZINC001109082135
 54 57 1 0 0
SMALL
USER_CHARGES


@<TRIPOS>ATOM
      1 C1        -14.2388   -0.2019   48.3504 C.3     1  ZINC001109082135   -0.1400
      2 C2        -14.5635   -1.6076   47.8413 C.3     1  ZINC001109082135   -0.1400
      3 C3        -15.4842   -2.2948   48.8166 C.2     1  ZINC001109082135    0.5100
      4 O4        -16.3832   -2.9992   48.4085 O.2     1  ZINC001109082135   -0.5400
      5 N5        -15.3086   -2.1267   50.1422 N.am    1  ZINC001109082135   -0.7200
      6 C6        -16.2048   -2.7933   51.0903 C.3     1  ZINC001109082135    0.1000
      7 C7        -15.4229   -3.2191   52.3062 C.2     1  ZINC001109082135    0.5100
      8 O8        -15.8977   -4.0212   53.0822 O.2     1  ZINC001109082135   -0.5300
      9 N9        -14.1961   -2.7085   52.5313 N.am    1  ZINC001109082135   -0.7100
     10 C10       -13.4353   -3.1237   53.7124 C.3     1  ZINC001109082135    0.1100
     11 H11       -14.1081   -3.4503   54.5054 H       1  ZINC001109082135    0.0900
     12 C12       -12.4350   -4.2482   53.3488 C.3     1  ZINC001109082135   -0.1600
     13 C13       -11.0464   -3.6198   53.6741 C.3     1  ZINC001109082135    0.0600
     14 H14       -10.2348   -4.3293   53.8353 H       1  ZINC001109082135    0.1300
     15 C15       -10.8063   -2.5665   52.5507 C.3     1  ZINC001109082135   -0.1200
     16 C16       -11.8053   -1.4351   52.8958 C.3     1  ZINC001109082135   -0.1100
     17 C17       -12.5208   -1.9647   54.2113 C.3     1  ZINC001109082135    0.0400
     18 H18       -12.9954   -1.2018   54.8285 H       1  ZINC001109082135    0.1200
     19 N19       -11.3952   -2.7419   54.8476 N.3     1  ZINC001109082135   -0.4800
     20 C20       -11.8795   -3.5317   55.9876 C.3     1  ZINC001109082135    0.0800
     21 C21       -11.1192   -3.1407   57.2287 C.2     1  ZINC001109082135    0.2000
     22 C22       -10.6644   -4.1011   58.0808 C.2     1  ZINC001109082135   -0.2900
     23 C23        -9.9561   -3.7009   59.2326 C.2     1  ZINC001109082135    0.5200
     24 O24        -9.5311   -4.5286   60.0215 O.2     1  ZINC001109082135   -0.5400
     25 N25        -9.7579   -2.3821   59.4434 N.am    1  ZINC001109082135   -0.6300
     26 C26       -10.2338   -1.4815   58.5612 C.2     1  ZINC001109082135    0.4300
     27 C27       -10.0040   -0.0132   58.8112 C.3     1  ZINC001109082135   -0.1400
     28 C28       -11.2305    0.9014   58.8249 C.3     1  ZINC001109082135   -0.1400
     29 C29       -10.5115    0.5661   60.1332 C.3     1  ZINC001109082135   -0.1400
     30 N30       -10.8856   -1.8526   57.4916 N.2     1  ZINC001109082135   -0.5300
     31 H31       -13.7516   -0.2711   49.3230 H       1  ZINC001109082135    0.0600
     32 H32       -13.5729    0.2952   47.6450 H       1  ZINC001109082135    0.0600
     33 H33       -15.1606    0.3719   48.4458 H       1  ZINC001109082135    0.0600
     34 H34       -15.0507   -1.5384   46.8687 H       1  ZINC001109082135    0.1000
     35 H35       -13.6417   -2.1814   47.7459 H       1  ZINC001109082135    0.1000
     36 H36       -14.5888   -1.5643   50.4686 H       1  ZINC001109082135    0.4100
     37 H37       -16.9949   -2.1045   51.3892 H       1  ZINC001109082135    0.1000
     38 H38       -16.6469   -3.6702   50.6172 H       1  ZINC001109082135    0.1000
     39 H39       -13.8170   -2.0661   51.9113 H       1  ZINC001109082135    0.4000
     40 H40       -12.6100   -5.1312   53.9635 H       1  ZINC001109082135    0.0800
     41 H41       -12.5052   -4.4966   52.2897 H       1  ZINC001109082135    0.0800
     42 H42        -9.7814   -2.1968   52.5841 H       1  ZINC001109082135    0.0700
     43 H43       -11.0305   -2.9912   51.5722 H       1  ZINC001109082135    0.0700
     44 H44       -11.2758   -0.5046   53.1001 H       1  ZINC001109082135    0.0700
     45 H45       -12.5248   -1.2990   52.0883 H       1  ZINC001109082135    0.0700
     46 H46       -12.9421   -3.3401   56.1372 H       1  ZINC001109082135    0.1000
     47 H47       -11.7262   -4.5919   55.7865 H       1  ZINC001109082135    0.0700
     48 H48       -10.8428   -5.1469   57.8787 H       1  ZINC001109082135    0.1600
     49 H49        -9.2737   -2.0832   60.2291 H       1  ZINC001109082135    0.4200
     50 H50        -9.0771    0.3932   58.4064 H       1  ZINC001109082135    0.1300
     51 H51       -11.1106    1.9099   58.4290 H       1  ZINC001109082135    0.1100
     52 H52       -12.2034    0.4412   58.6531 H       1  ZINC001109082135    0.1100
     53 H53       -11.0116   -0.1147   60.8222 H       1  ZINC001109082135    0.1100
     54 H54        -9.9187    1.3539   60.5979 H       1  ZINC001109082135    0.1100
@<TRIPOS>BOND
     1     1     2    1
     2     1    31    1
     3     1    32    1
     4     1    33    1
     5     2     3    1
     6     2    34    1
     7     2    35    1
     8     3     4    2
     9     3     5   am
    10     5     6    1
    11     5    36    1
    12     6     7    1
    13     6    37    1
    14     6    38    1
    15     7     8    2
    16     7     9   am
    17     9    10    1
    18     9    39    1
    19    10    11    1
    20    10    17    1
    21    10    12    1
    22    12    13    1
    23    12    40    1
    24    12    41    1
    25    13    14    1
    26    13    19    1
    27    13    15    1
    28    15    16    1
    29    15    42    1
    30    15    43    1
    31    16    17    1
    32    16    44    1
    33    16    45    1
    34    17    18    1
    35    17    19    1
    36    19    20    1
    37    20    21    1
    38    20    46    1
    39    20    47    1
    40    21    30    1
    41    21    22    2
    42    22    23    1
    43    22    48    1
    44    23    24    2
    45    23    25   am
    46    25    26    1
    47    25    49    1
    48    26    27    1
    49    26    30    2
    50    27    29    1
    51    27    28    1
    52    27    50    1
    53    28    29    1
    54    28    51    1
    55    28    52    1
    56    29    53    1
    57    29    54    1
@<TRIPOS>SUBSTRUCTURE
     1 ZINC001109082135        1 TEMP              0 ****  ****    0 ROOT


##########                                Name:    ZINC001127302705
##########                DOCK_Rotatable_Bonds:                   9
##########                         Heavy_Atoms:                  28
##########                    Molecular_Weight:             398.892
##########                DOCK_Rotatable_Bonds:                   9
##########                       Formal_Charge:          -0.0200002
##########                     HBond_Acceptors:                   7
##########                        HBond_Donors:                   1
##########                         Heavy_Atoms:                  28
##########                          Grid_Score:          -36.696934
##########                     Grid_vdw_energy:          -36.528938
##########                      Grid_es_energy:           -0.167994
##########           Internal_energy_repulsive:           27.095631

@<TRIPOS>MOLECULE
ZINC001127302705
 51 53 1 0 0
SMALL
USER_CHARGES


@<TRIPOS>ATOM
      1 C1         -9.6073   -3.7087   59.3700 C.3     1  ZINC001127302705   -0.1500
      2 C2        -10.9582   -3.3173   59.9723 C.3     1  ZINC001127302705   -0.1400
      3 C3        -11.0286   -1.7962   60.1216 C.3     1  ZINC001127302705    0.1800
      4 C4        -12.4789   -1.3742   60.3649 C.3     1  ZINC001127302705   -0.1600
      5 C5        -10.1646   -1.3595   61.3064 C.3     1  ZINC001127302705    0.0700
      6 O6        -10.2953    0.0507   61.4969 O.3     1  ZINC001127302705   -0.2800
      7 C7        -10.0918    0.5242   62.7522 C.ar    1  ZINC001127302705    0.3400
      8 N8         -9.1261    0.0128   63.4966 N.ar    1  ZINC001127302705   -0.5300
      9 C9         -8.8938    0.4441   64.7220 C.ar    1  ZINC001127302705    0.1400
     10 C10        -9.6576    1.4526   65.2744 C.ar    1  ZINC001127302705   -0.2000
     11 C11       -10.6817    2.0168   64.5260 C.ar    1  ZINC001127302705   -0.0300
     12 C12       -10.8970    1.5466   63.2415 C.ar    1  ZINC001127302705   -0.1100
     13 Cl13      -12.1634    2.2153   62.2604 Cl      1  ZINC001127302705   -0.0400
     14 N14       -10.5343   -1.1619   58.8969 N.am    1  ZINC001127302705   -0.7100
     15 C15       -11.1338   -1.4166   57.7169 C.2     1  ZINC001127302705    0.6200
     16 O16       -12.0856   -2.1715   57.6691 O.2     1  ZINC001127302705   -0.5200
     17 C17       -10.6345   -0.7785   56.4820 C.2     1  ZINC001127302705   -0.0200
     18 N18       -11.1004   -0.9590   55.2622 N.2     1  ZINC001127302705   -0.2500
     19 N19       -10.4328   -0.2485   54.4256 N.pl3   1  ZINC001127302705   -0.2800
     20 C20       -10.6779   -0.2031   52.9820 C.3     1  ZINC001127302705    0.1600
     21 C21        -9.3892    0.1026   52.2631 C.ar    1  ZINC001127302705   -0.1200
     22 C22        -8.9988    1.4147   52.0718 C.ar    1  ZINC001127302705   -0.1000
     23 C23        -7.8167    1.6950   51.4123 C.ar    1  ZINC001127302705   -0.1200
     24 C24        -7.0247    0.6631   50.9446 C.ar    1  ZINC001127302705   -0.1100
     25 C25        -7.4146   -0.6491   51.1368 C.ar    1  ZINC001127302705   -0.1200
     26 C26        -8.5947   -0.9294   51.8000 C.ar    1  ZINC001127302705   -0.0800
     27 C27        -9.4728    0.4507   55.0683 C.2     1  ZINC001127302705   -0.0200
     28 C28        -9.5690    0.1475   56.3841 C.2     1  ZINC001127302705   -0.1800
     29 H29        -8.8053   -3.3705   60.0261 H       1  ZINC001127302705    0.0500
     30 H30        -9.5573   -4.7923   59.2636 H       1  ZINC001127302705    0.0600
     31 H31        -9.4970   -3.2421   58.3911 H       1  ZINC001127302705    0.0500
     32 H32       -11.7603   -3.6554   59.3161 H       1  ZINC001127302705    0.0900
     33 H33       -11.0685   -3.7839   60.9512 H       1  ZINC001127302705    0.0800
     34 H34       -12.8466   -1.8461   61.2761 H       1  ZINC001127302705    0.0700
     35 H35       -12.5290   -0.2905   60.4713 H       1  ZINC001127302705    0.0500
     36 H36       -13.0944   -1.6852   59.5208 H       1  ZINC001127302705    0.0800
     37 H37       -10.4925   -1.8797   62.2064 H       1  ZINC001127302705    0.0800
     38 H38        -9.1217   -1.6039   61.1051 H       1  ZINC001127302705    0.0700
     39 H39        -8.0959    0.0021   65.3003 H       1  ZINC001127302705    0.1700
     40 H40        -9.4607    1.7989   66.2782 H       1  ZINC001127302705    0.1500
     41 H41       -11.2939    2.8071   64.9347 H       1  ZINC001127302705    0.1500
     42 H42        -9.7758   -0.5588   58.9353 H       1  ZINC001127302705    0.4100
     43 H43       -11.0606   -1.1673   52.6479 H       1  ZINC001127302705    0.1000
     44 H44       -11.4098    0.5743   52.7620 H       1  ZINC001127302705    0.1100
     45 H45        -9.6176    2.2210   52.4372 H       1  ZINC001127302705    0.1200
     46 H46        -7.5121    2.7203   51.2622 H       1  ZINC001127302705    0.1300
     47 H47        -6.1014    0.8821   50.4288 H       1  ZINC001127302705    0.1200
     48 H48        -6.7960   -1.4553   50.7710 H       1  ZINC001127302705    0.1300
     49 H49        -8.8993   -1.9546   51.9501 H       1  ZINC001127302705    0.1300
     50 H50        -8.7637    1.1290   54.6174 H       1  ZINC001127302705    0.1800
     51 H51        -8.9566    0.5267   57.1888 H       1  ZINC001127302705    0.1600
@<TRIPOS>BOND
     1     1     2    1
     2     1    29    1
     3     1    30    1
     4     1    31    1
     5     2     3    1
     6     2    32    1
     7     2    33    1
     8     3     4    1
     9     3     5    1
    10     3    14    1
    11     4    34    1
    12     4    35    1
    13     4    36    1
    14     5     6    1
    15     5    37    1
    16     5    38    1
    17     6     7    1
    18     7    12   ar
    19     7     8   ar
    20     8     9   ar
    21     9    10   ar
    22     9    39    1
    23    10    11   ar
    24    10    40    1
    25    11    12   ar
    26    11    41    1
    27    12    13    1
    28    14    15   am
    29    14    42    1
    30    15    16    2
    31    15    17    1
    32    17    28    1
    33    17    18    2
    34    18    19    1
    35    19    20    1
    36    19    27    1
    37    20    21    1
    38    20    43    1
    39    20    44    1
    40    21    26   ar
    41    21    22   ar
    42    22    23   ar
    43    22    45    1
    44    23    24   ar
    45    23    46    1
    46    24    25   ar
    47    24    47    1
    48    25    26   ar
    49    25    48    1
    50    26    49    1
    51    27    28    2
    52    27    50    1
    53    28    51    1
@<TRIPOS>SUBSTRUCTURE
     1 ZINC001127302705        1 TEMP              0 ****  ****    0 ROOT


##########                                Name:    ZINC000489986384
##########                DOCK_Rotatable_Bonds:                  11
##########                         Heavy_Atoms:                  31
##########                    Molecular_Weight:             415.492
##########                DOCK_Rotatable_Bonds:                  11
##########                       Formal_Charge:          -0.0499997
##########                     HBond_Acceptors:                   6
##########                        HBond_Donors:                   2
##########                         Heavy_Atoms:                  31
##########                          Grid_Score:          -36.686592
##########                     Grid_vdw_energy:          -34.916893
##########                      Grid_es_energy:           -1.769698
##########           Internal_energy_repulsive:           10.654408

@<TRIPOS>MOLECULE
ZINC000489986384
 56 59 1 0 0
SMALL
USER_CHARGES


@<TRIPOS>ATOM
      1 O1        -14.6636   -3.5112   60.9927 O.2     1  ZINC000489986384   -0.5000
      2 C2        -14.3911   -2.3581   60.7338 C.2     1  ZINC000489986384    0.4900
      3 C3        -13.9189   -1.9876   59.3515 C.3     1  ZINC000489986384    0.0900
      4 N4        -12.8869   -2.9328   58.9183 N.pl3   1  ZINC000489986384   -0.4700
      5 C5        -11.6348   -3.0905   59.4782 C.ar    1  ZINC000489986384    0.0700
      6 C6        -10.9644   -2.4866   60.5327 C.ar    1  ZINC000489986384   -0.1100
      7 C7         -9.6819   -2.8858   60.8449 C.ar    1  ZINC000489986384   -0.0900
      8 C8         -9.0587   -3.8854   60.1120 C.ar    1  ZINC000489986384   -0.1300
      9 C9         -9.7030   -4.4907   59.0703 C.ar    1  ZINC000489986384   -0.0600
     10 C10       -11.0031   -4.1033   58.7363 C.ar    1  ZINC000489986384    0.0500
     11 N11       -11.8834   -4.5023   57.7825 N.2     1  ZINC000489986384   -0.4600
     12 C12       -12.9867   -3.8219   57.8935 C.2     1  ZINC000489986384    0.2800
     13 C13       -14.1953   -3.9867   57.0084 C.3     1  ZINC000489986384    0.1400
     14 O14       -14.1700   -2.9966   55.9784 O.3     1  ZINC000489986384   -0.3000
     15 C15       -13.2054   -3.1185   55.0289 C.ar    1  ZINC000489986384    0.1300
     16 C16       -13.1949   -4.2208   54.1867 C.ar    1  ZINC000489986384   -0.2100
     17 C17       -12.2135   -4.3422   53.2220 C.ar    1  ZINC000489986384   -0.0800
     18 C18       -11.2421   -3.3664   53.0957 C.ar    1  ZINC000489986384   -0.1600
     19 C19       -11.2501   -2.2671   53.9341 C.ar    1  ZINC000489986384   -0.0800
     20 C20       -12.2330   -2.1380   54.8964 C.ar    1  ZINC000489986384   -0.1500
     21 N21       -14.5159   -1.4071   61.6807 N.am    1  ZINC000489986384   -0.7300
     22 C22       -14.9749   -1.7673   63.0244 C.3     1  ZINC000489986384    0.1300
     23 C23       -15.8635   -0.6507   63.5762 C.3     1  ZINC000489986384   -0.0600
     24 H24       -16.7506   -0.5496   62.9508 H       1  ZINC000489986384    0.0900
     25 C25       -16.2843   -0.9935   65.0065 C.3     1  ZINC000489986384    0.0800
     26 O26       -17.3588   -1.9351   64.9743 O.3     1  ZINC000489986384   -0.5700
     27 C27       -15.0979    0.6474   63.5753 C.ar    1  ZINC000489986384   -0.0700
     28 C28       -15.2876    1.5610   62.5554 C.ar    1  ZINC000489986384   -0.1100
     29 C29       -14.5853    2.7517   62.5546 C.ar    1  ZINC000489986384   -0.1200
     30 C30       -13.6935    3.0288   63.5738 C.ar    1  ZINC000489986384   -0.1200
     31 C31       -13.5043    2.1156   64.5941 C.ar    1  ZINC000489986384   -0.1200
     32 C32       -14.2098    0.9268   64.5973 C.ar    1  ZINC000489986384   -0.1100
     33 H33       -14.7594   -2.0245   58.6583 H       1  ZINC000489986384    0.1200
     34 H34       -13.5048   -0.9794   59.3669 H       1  ZINC000489986384    0.1200
     35 H35       -11.4448   -1.7076   61.1061 H       1  ZINC000489986384    0.1200
     36 H36        -9.1590   -2.4168   61.6652 H       1  ZINC000489986384    0.1300
     37 H37        -8.0537   -4.1878   60.3673 H       1  ZINC000489986384    0.1300
     38 H38        -9.2082   -5.2672   58.5059 H       1  ZINC000489986384    0.1300
     39 H39       -14.1836   -4.9795   56.5586 H       1  ZINC000489986384    0.0800
     40 H40       -15.1006   -3.8684   57.6039 H       1  ZINC000489986384    0.1000
     41 H41       -13.9530   -4.9836   54.2854 H       1  ZINC000489986384    0.1300
     42 H42       -12.2049   -5.2002   52.5661 H       1  ZINC000489986384    0.1300
     43 H43       -10.4756   -3.4634   52.3410 H       1  ZINC000489986384    0.1200
     44 H44       -10.4901   -1.5063   53.8337 H       1  ZINC000489986384    0.1300
     45 H45       -12.2388   -1.2790   55.5510 H       1  ZINC000489986384    0.1300
     46 H46       -14.3016   -0.4842   61.4724 H       1  ZINC000489986384    0.4000
     47 H47       -15.5447   -2.6952   62.9772 H       1  ZINC000489986384    0.0800
     48 H48       -14.1135   -1.9027   63.6785 H       1  ZINC000489986384    0.0800
     49 H49       -15.4382   -1.4261   65.5405 H       1  ZINC000489986384    0.0500
     50 H50       -16.6107   -0.0871   65.5164 H       1  ZINC000489986384    0.0500
     51 H51       -17.6780   -2.1978   65.8485 H       1  ZINC000489986384    0.3800
     52 H52       -15.9844    1.3445   61.7592 H       1  ZINC000489986384    0.1200
     53 H53       -14.7331    3.4652   61.7574 H       1  ZINC000489986384    0.1200
     54 H54       -13.1443    3.9588   63.5727 H       1  ZINC000489986384    0.1200
     55 H55       -12.8074    2.3320   65.3902 H       1  ZINC000489986384    0.1200
     56 H56       -14.0621    0.2133   65.3944 H       1  ZINC000489986384    0.1200
@<TRIPOS>BOND
     1     1     2    2
     2     2     3    1
     3     2    21   am
     4     3     4    1
     5     3    33    1
     6     3    34    1
     7     4    12    1
     8     4     5    1
     9     5    10   ar
    10     5     6   ar
    11     6     7   ar
    12     6    35    1
    13     7     8   ar
    14     7    36    1
    15     8     9   ar
    16     8    37    1
    17     9    10   ar
    18     9    38    1
    19    10    11    1
    20    11    12    2
    21    12    13    1
    22    13    14    1
    23    13    39    1
    24    13    40    1
    25    14    15    1
    26    15    20   ar
    27    15    16   ar
    28    16    17   ar
    29    16    41    1
    30    17    18   ar
    31    17    42    1
    32    18    19   ar
    33    18    43    1
    34    19    20   ar
    35    19    44    1
    36    20    45    1
    37    21    22    1
    38    21    46    1
    39    22    23    1
    40    22    47    1
    41    22    48    1
    42    23    24    1
    43    23    25    1
    44    23    27    1
    45    25    26    1
    46    25    49    1
    47    25    50    1
    48    26    51    1
    49    27    32   ar
    50    27    28   ar
    51    28    29   ar
    52    28    52    1
    53    29    30   ar
    54    29    53    1
    55    30    31   ar
    56    30    54    1
    57    31    32   ar
    58    31    55    1
    59    32    56    1
@<TRIPOS>SUBSTRUCTURE
     1 ZINC000489986384        1 TEMP              0 ****  ****    0 ROOT


##########                                Name:    ZINC000980108339
##########                DOCK_Rotatable_Bonds:                   9
##########                         Heavy_Atoms:                  25
##########                    Molecular_Weight:             348.445
##########                DOCK_Rotatable_Bonds:                   9
##########                       Formal_Charge:          -0.0100001
##########                     HBond_Acceptors:                   7
##########                        HBond_Donors:                   3
##########                         Heavy_Atoms:                  25
##########                          Grid_Score:          -36.685139
##########                     Grid_vdw_energy:          -36.663200
##########                      Grid_es_energy:           -0.021940
##########           Internal_energy_repulsive:           10.738400

@<TRIPOS>MOLECULE
ZINC000980108339
 53 56 1 0 0
SMALL
USER_CHARGES


@<TRIPOS>ATOM
      1 C1        -10.9608   -0.3702   62.1958 C.3     1  ZINC000980108339    0.1200
      2 N2        -10.3782   -1.1071   61.0716 N.am    1  ZINC000980108339   -0.6400
      3 C3        -10.0471   -2.5399   61.0722 C.3     1  ZINC000980108339    0.1100
      4 C4         -9.4732   -2.7867   59.6634 C.3     1  ZINC000980108339    0.1000
      5 H5         -8.4402   -3.1289   59.7256 H       1  ZINC000980108339    0.1200
      6 C6        -10.3165   -3.7880   58.9168 C.2     1  ZINC000980108339    0.5000
      7 O7        -10.1747   -4.9746   59.1240 O.2     1  ZINC000980108339   -0.5200
      8 N8        -11.2283   -3.3650   58.0190 N.am    1  ZINC000980108339   -0.7200
      9 C9        -12.0469   -4.3383   57.2920 C.3     1  ZINC000980108339    0.1300
     10 C10       -12.6039   -3.6899   56.0231 C.3     1  ZINC000980108339   -0.1200
     11 H11       -13.1188   -2.7494   56.2194 H       1  ZINC000980108339    0.1000
     12 C12       -11.5838   -3.6057   54.8755 C.3     1  ZINC000980108339   -0.1400
     13 C13       -12.7364   -3.9799   53.9286 C.3     1  ZINC000980108339    0.1200
     14 H14       -12.4464   -4.6760   53.1416 H       1  ZINC000980108339    0.1100
     15 N15       -13.4771   -2.8228   53.4200 N.am    1  ZINC000980108339   -0.7200
     16 C16       -12.9655   -2.0834   52.4160 C.2     1  ZINC000980108339    0.5200
     17 O17       -11.8925   -2.3768   51.9326 O.2     1  ZINC000980108339   -0.5300
     18 C18       -13.7265   -0.8920   51.8939 C.3     1  ZINC000980108339   -0.1100
     19 C19       -13.8106   -0.9691   50.3682 C.3     1  ZINC000980108339   -0.1300
     20 H20       -13.2769   -1.8014   49.9094 H       1  ZINC000980108339    0.1200
     21 C21       -13.8592    0.3507   49.5958 C.3     1  ZINC000980108339   -0.1700
     22 C22       -15.1152   -0.5170   49.7089 C.3     1  ZINC000980108339   -0.1200
     23 H23       -15.9134   -0.1643   50.3619 H       1  ZINC000980108339    0.1000
     24 C24       -15.5708   -1.2669   48.4555 C.3     1  ZINC000980108339   -0.1300
     25 C25       -15.4553   -0.5381   47.1151 C.3     1  ZINC000980108339   -0.1800
     26 C26       -14.4948   -1.6811   47.4497 C.3     1  ZINC000980108339   -0.1800
     27 C27       -13.4061   -4.6580   55.1376 C.3     1  ZINC000980108339   -0.1400
     28 N28        -9.5419   -1.4669   59.0187 N.am    1  ZINC000980108339   -0.7200
     29 C29       -10.0677   -0.5841   59.8782 C.2     1  ZINC000980108339    0.7000
     30 O30       -10.2391    0.5877   59.6031 O.2     1  ZINC000980108339   -0.5800
     31 H31       -11.1033    0.6725   61.9119 H       1  ZINC000980108339    0.0900
     32 H32       -11.9230   -0.8098   62.4588 H       1  ZINC000980108339    0.0600
     33 H33       -10.2898   -0.4250   63.0530 H       1  ZINC000980108339    0.0600
     34 H34        -9.2989   -2.7594   61.8339 H       1  ZINC000980108339    0.1000
     35 H35       -10.9433   -3.1396   61.2307 H       1  ZINC000980108339    0.0900
     36 H36       -11.3427   -2.4158   57.8542 H       1  ZINC000980108339    0.4000
     37 H37       -11.4343   -5.1983   57.0216 H       1  ZINC000980108339    0.0700
     38 H38       -12.8718   -4.6646   57.9254 H       1  ZINC000980108339    0.0700
     39 H39       -11.1926   -2.6016   54.7116 H       1  ZINC000980108339    0.0800
     40 H40       -10.8010   -4.3623   54.9307 H       1  ZINC000980108339    0.1000
     41 H41       -14.3358   -2.5888   53.8057 H       1  ZINC000980108339    0.4000
     42 H42       -14.7325   -0.8911   52.3137 H       1  ZINC000980108339    0.1000
     43 H43       -13.2112    0.0237   52.1836 H       1  ZINC000980108339    0.1000
     44 H44       -13.8312    1.2740   50.1746 H       1  ZINC000980108339    0.0900
     45 H45       -13.3577    0.3866   48.6287 H       1  ZINC000980108339    0.1000
     46 H46       -16.4178   -1.9393   48.5918 H       1  ZINC000980108339    0.1000
     47 H47       -16.2266   -0.7308   46.3694 H       1  ZINC000980108339    0.0900
     48 H48       -15.0547    0.4755   47.1264 H       1  ZINC000980108339    0.0900
     49 H49       -13.4622   -1.4194   47.6811 H       1  ZINC000980108339    0.0900
     50 H50       -14.6341   -2.6257   46.9242 H       1  ZINC000980108339    0.0900
     51 H51       -13.1218   -5.7025   55.2651 H       1  ZINC000980108339    0.1000
     52 H52       -14.4839   -4.5029   55.1835 H       1  ZINC000980108339    0.0800
     53 H53        -9.2559   -1.2679   58.1135 H       1  ZINC000980108339    0.4400
@<TRIPOS>BOND
     1     1     2    1
     2     1    31    1
     3     1    32    1
     4     1    33    1
     5     2    29   am
     6     2     3    1
     7     3     4    1
     8     3    34    1
     9     3    35    1
    10     4     5    1
    11     4     6    1
    12     4    28    1
    13     6     7    2
    14     6     8   am
    15     8     9    1
    16     8    36    1
    17     9    10    1
    18     9    37    1
    19     9    38    1
    20    10    11    1
    21    10    27    1
    22    10    12    1
    23    12    13    1
    24    12    39    1
    25    12    40    1
    26    13    14    1
    27    13    15    1
    28    13    27    1
    29    15    16   am
    30    15    41    1
    31    16    17    2
    32    16    18    1
    33    18    19    1
    34    18    42    1
    35    18    43    1
    36    19    20    1
    37    19    22    1
    38    19    21    1
    39    21    22    1
    40    21    44    1
    41    21    45    1
    42    22    23    1
    43    22    24    1
    44    24    26    1
    45    24    25    1
    46    24    46    1
    47    25    26    1
    48    25    47    1
    49    25    48    1
    50    26    49    1
    51    26    50    1
    52    27    51    1
    53    27    52    1
    54    28    29   am
    55    28    53    1
    56    29    30    2
@<TRIPOS>SUBSTRUCTURE
     1 ZINC000980108339        1 TEMP              0 ****  ****    0 ROOT


##########                                Name:    ZINC000543625960
##########                DOCK_Rotatable_Bonds:                   8
##########                         Heavy_Atoms:                  29
##########                    Molecular_Weight:             416.544
##########                DOCK_Rotatable_Bonds:                   8
##########                       Formal_Charge:           -0.010001
##########                     HBond_Acceptors:                   8
##########                        HBond_Donors:                   2
##########                         Heavy_Atoms:                  29
##########                          Grid_Score:          -36.657547
##########                     Grid_vdw_energy:          -36.678562
##########                      Grid_es_energy:            0.021015
##########           Internal_energy_repulsive:           15.804650

@<TRIPOS>MOLECULE
ZINC000543625960
 57 59 1 0 0
SMALL
USER_CHARGES


@<TRIPOS>ATOM
      1 C1         -3.2767    1.8365   49.2928 C.3     1  ZINC000543625960   -0.1500
      2 C2         -3.3059    2.2908   50.7535 C.3     1  ZINC000543625960   -0.1300
      3 C3         -4.7399    2.2174   51.2819 C.3     1  ZINC000543625960    0.1500
      4 H4         -5.3806    2.8669   50.6854 H       1  ZINC000543625960    0.0800
      5 C5         -4.7694    2.6735   52.7421 C.3     1  ZINC000543625960   -0.1700
      6 N6         -5.2237    0.8376   51.1914 N.am    1  ZINC000543625960   -1.1100
      7 S7         -6.7649    0.5332   50.6678 S.o2    1  ZINC000543625960    2.7000
      8 O8         -6.9021    1.1950   49.4178 O.2     1  ZINC000543625960   -0.9600
      9 O9         -6.9778   -0.8616   50.8361 O.2     1  ZINC000543625960   -0.9500
     10 C10        -7.8638    1.3423   51.7824 C.ar    1  ZINC000543625960   -0.6600
     11 C11        -7.9660    2.7211   51.7723 C.ar    1  ZINC000543625960   -0.0400
     12 C12        -8.8273    3.3601   52.6457 C.ar    1  ZINC000543625960   -0.1200
     13 C13        -9.5882    2.6221   53.5308 C.ar    1  ZINC000543625960   -0.0600
     14 C14        -9.4882    1.2369   53.5431 C.ar    1  ZINC000543625960    0.1500
     15 N15       -10.2580    0.4862   54.4389 N.am    1  ZINC000543625960   -0.6800
     16 C16        -9.7604    0.1642   55.6493 C.2     1  ZINC000543625960    0.7200
     17 O17        -8.6428    0.5259   55.9631 O.2     1  ZINC000543625960   -0.5600
     18 N18       -10.5017   -0.5588   56.5121 N.am    1  ZINC000543625960   -0.6300
     19 C19       -10.0828   -0.9791   57.8617 C.3     1  ZINC000543625960    0.0900
     20 C20       -11.4059   -1.1977   58.6373 C.3     1  ZINC000543625960   -0.1000
     21 H21       -11.2657   -1.9003   59.4588 H       1  ZINC000543625960    0.1000
     22 C22       -11.9694    0.1307   59.1458 C.3     1  ZINC000543625960   -0.1500
     23 C23       -12.3159   -1.8037   57.5364 C.3     1  ZINC000543625960   -0.1200
     24 C24       -11.8640   -1.0535   56.2657 C.3     1  ZINC000543625960    0.2000
     25 H25       -12.5369   -0.2188   56.0691 H       1  ZINC000543625960    0.0900
     26 C26       -11.8584   -1.9952   55.0892 C.ar    1  ZINC000543625960   -0.1400
     27 C27       -12.5590   -1.6808   53.9351 C.ar    1  ZINC000543625960   -0.0600
     28 C28       -12.5250   -2.5771   52.8776 C.ar    1  ZINC000543625960   -0.1700
     29 C29       -11.7991   -3.7456   53.0082 C.ar    1  ZINC000543625960    0.1000
     30 N30       -11.1443   -4.0120   54.1216 N.ar    1  ZINC000543625960   -0.4800
     31 C31       -11.1499   -3.1808   55.1452 C.ar    1  ZINC000543625960    0.1200
     32 C32        -8.6265    0.5982   52.6616 C.ar    1  ZINC000543625960   -0.0500
     33 H33        -2.2551    1.8888   48.9165 H       1  ZINC000543625960    0.0600
     34 H34        -3.6371    0.8101   49.2242 H       1  ZINC000543625960    0.0600
     35 H35        -3.9171    2.4870   48.6971 H       1  ZINC000543625960    0.0500
     36 H36        -2.6655    1.6402   51.3492 H       1  ZINC000543625960    0.0700
     37 H37        -2.9454    3.3172   50.8221 H       1  ZINC000543625960    0.0800
     38 H38        -4.4095    3.7002   52.8093 H       1  ZINC000543625960    0.0700
     39 H39        -5.7910    2.6213   53.1184 H       1  ZINC000543625960    0.0700
     40 H40        -4.1288    2.0241   53.3386 H       1  ZINC000543625960    0.0600
     41 H41        -4.6413    0.1022   51.4384 H       1  ZINC000543625960    0.4200
     42 H42        -7.3717    3.3005   51.0814 H       1  ZINC000543625960    0.1400
     43 H43        -8.9046    4.4372   52.6356 H       1  ZINC000543625960    0.1400
     44 H44       -10.2602    3.1216   54.2130 H       1  ZINC000543625960    0.1400
     45 H45       -11.1496    0.1977   54.1887 H       1  ZINC000543625960    0.4100
     46 H46        -9.5151   -1.9082   57.8106 H       1  ZINC000543625960    0.0700
     47 H47        -9.4901   -0.1968   58.3358 H       1  ZINC000543625960    0.0800
     48 H48       -12.1407    0.7995   58.3023 H       1  ZINC000543625960    0.0600
     49 H49       -12.9113   -0.0489   59.6644 H       1  ZINC000543625960    0.0600
     50 H50       -11.2577    0.5879   59.8333 H       1  ZINC000543625960    0.0600
     51 H51       -12.1415   -2.8752   57.4384 H       1  ZINC000543625960    0.0800
     52 H52       -13.3655   -1.6005   57.7486 H       1  ZINC000543625960    0.0900
     53 H53       -13.1183   -0.7599   53.8615 H       1  ZINC000543625960    0.1300
     54 H54       -13.0595   -2.3648   51.9634 H       1  ZINC000543625960    0.1400
     55 H55       -11.7678   -4.4490   52.1893 H       1  ZINC000543625960    0.1600
     56 H56       -10.6016   -3.4332   56.0408 H       1  ZINC000543625960    0.1400
     57 H57        -8.5464   -0.4789   52.6686 H       1  ZINC000543625960    0.1400
@<TRIPOS>BOND
     1     1     2    1
     2     1    33    1
     3     1    34    1
     4     1    35    1
     5     2     3    1
     6     2    36    1
     7     2    37    1
     8     3     4    1
     9     3     5    1
    10     3     6    1
    11     5    38    1
    12     5    39    1
    13     5    40    1
    14     6     7   am
    15     6    41    1
    16     7     8    2
    17     7     9    2
    18     7    10    1
    19    10    32   ar
    20    10    11   ar
    21    11    12   ar
    22    11    42    1
    23    12    13   ar
    24    12    43    1
    25    13    14   ar
    26    13    44    1
    27    14    15    1
    28    14    32   ar
    29    15    16   am
    30    15    45    1
    31    16    17    2
    32    16    18   am
    33    18    24    1
    34    18    19    1
    35    19    20    1
    36    19    46    1
    37    19    47    1
    38    20    21    1
    39    20    22    1
    40    20    23    1
    41    22    48    1
    42    22    49    1
    43    22    50    1
    44    23    24    1
    45    23    51    1
    46    23    52    1
    47    24    25    1
    48    24    26    1
    49    26    31   ar
    50    26    27   ar
    51    27    28   ar
    52    27    53    1
    53    28    29   ar
    54    28    54    1
    55    29    30   ar
    56    29    55    1
    57    30    31   ar
    58    31    56    1
    59    32    57    1
@<TRIPOS>SUBSTRUCTURE
     1 ZINC000543625960        1 TEMP              0 ****  ****    0 ROOT


##########                                Name:    ZINC000505965769
##########                DOCK_Rotatable_Bonds:                   9
##########                         Heavy_Atoms:                  29
##########                    Molecular_Weight:              419.88
##########                DOCK_Rotatable_Bonds:                   9
##########                       Formal_Charge:               -0.02
##########                     HBond_Acceptors:                   7
##########                        HBond_Donors:                   1
##########                         Heavy_Atoms:                  29
##########                          Grid_Score:          -36.647598
##########                     Grid_vdw_energy:          -34.967480
##########                      Grid_es_energy:           -1.680117
##########           Internal_energy_repulsive:           99.943031

@<TRIPOS>MOLECULE
ZINC000505965769
 52 54 1 0 0
SMALL
USER_CHARGES


@<TRIPOS>ATOM
      1 C1        -14.2150   -5.4652   57.2248 C.3     1  ZINC000505965769    0.0200
      2 O2        -12.8936   -5.1386   56.7897 O.3     1  ZINC000505965769   -0.3100
      3 C3        -12.2543   -4.1441   57.4552 C.ar    1  ZINC000505965769    0.1800
      4 C4        -12.7714   -2.8531   57.4350 C.ar    1  ZINC000505965769   -0.2200
      5 C5        -12.1349   -1.8457   58.1023 C.ar    1  ZINC000505965769   -0.0200
      6 C6        -10.9562   -2.1100   58.8110 C.ar    1  ZINC000505965769   -0.2100
      7 C7        -10.2706   -1.0293   59.5294 C.2     1  ZINC000505965769    0.3900
      8 O8         -9.6159   -0.2131   58.9157 O.2     1  ZINC000505965769   -0.4400
      9 C9        -10.3802   -0.9335   61.0293 C.3     1  ZINC000505965769   -0.1500
     10 C10       -10.8184    0.4795   61.4195 C.3     1  ZINC000505965769   -0.1300
     11 C11       -10.9423    0.5710   62.9186 C.2     1  ZINC000505965769    0.5200
     12 O12       -11.9093    0.0979   63.4771 O.2     1  ZINC000505965769   -0.5300
     13 N13        -9.9785    1.1786   63.6386 N.am    1  ZINC000505965769   -0.7200
     14 C14       -10.0999    1.2691   65.0957 C.3     1  ZINC000505965769    0.1900
     15 H15       -10.5209    0.3416   65.4837 H       1  ZINC000505965769    0.1100
     16 C16        -8.7378    1.4940   65.7002 C.ar    1  ZINC000505965769   -0.1000
     17 C17        -8.3494    2.7672   66.0732 C.ar    1  ZINC000505965769   -0.0900
     18 C18        -7.1006    2.9745   66.6277 C.ar    1  ZINC000505965769   -0.1500
     19 C19        -6.2386    1.9065   66.8100 C.ar    1  ZINC000505965769    0.1000
     20 F20        -5.0177    2.1079   67.3523 F       1  ZINC000505965769   -0.1400
     21 C21        -6.6290    0.6316   66.4364 C.ar    1  ZINC000505965769   -0.1500
     22 C22        -7.8801    0.4259   65.8867 C.ar    1  ZINC000505965769   -0.0600
     23 C23       -11.0184    2.4374   65.4593 C.3     1  ZINC000505965769    0.0800
     24 H24       -12.0185    2.2704   65.0594 H       1  ZINC000505965769    0.0700
     25 C25       -11.0773    2.6168   66.9973 C.3     1  ZINC000505965769   -0.1500
     26 C26       -11.4611    4.1179   67.1046 C.3     1  ZINC000505965769   -0.1600
     27 C27       -10.7331    4.7299   65.8884 C.3     1  ZINC000505965769    0.0500
     28 O28       -10.4797    3.6705   64.9562 O.3     1  ZINC000505965769   -0.3700
     29 C29       -10.4340   -3.4111   58.8321 C.ar    1  ZINC000505965769    0.0500
     30 Cl30       -8.9737   -3.7502   59.7072 Cl      1  ZINC000505965769   -0.0200
     31 C31       -11.0877   -4.4206   58.1593 C.ar    1  ZINC000505965769   -0.1600
     32 H32       -14.8562   -4.5890   57.1284 H       1  ZINC000505965769    0.0600
     33 H33       -14.6103   -6.2741   56.6102 H       1  ZINC000505965769    0.1100
     34 H34       -14.1865   -5.7817   58.2674 H       1  ZINC000505965769    0.0600
     35 H35       -13.6800   -2.6463   56.8890 H       1  ZINC000505965769    0.1400
     36 H36       -12.5404   -0.8449   58.0831 H       1  ZINC000505965769    0.1500
     37 H37       -11.1161   -1.6538   61.3866 H       1  ZINC000505965769    0.1100
     38 H38        -9.4112   -1.1506   61.4789 H       1  ZINC000505965769    0.1100
     39 H39       -10.0770    1.1989   61.0716 H       1  ZINC000505965769    0.1000
     40 H40       -11.7822    0.7007   60.9610 H       1  ZINC000505965769    0.1000
     41 H41        -9.2045    1.5559   63.1919 H       1  ZINC000505965769    0.4000
     42 H42        -9.0219    3.6002   65.9309 H       1  ZINC000505965769    0.1300
     43 H43        -6.7970    3.9694   66.9184 H       1  ZINC000505965769    0.1400
     44 H44        -5.9573   -0.2022   66.5778 H       1  ZINC000505965769    0.1400
     45 H45        -8.1850   -0.5685   65.5955 H       1  ZINC000505965769    0.1400
     46 H46       -11.8464    1.9823   67.4376 H       1  ZINC000505965769    0.0700
     47 H47       -10.1054    2.4263   67.4525 H       1  ZINC000505965769    0.1000
     48 H48       -12.5396    4.2498   67.0177 H       1  ZINC000505965769    0.0700
     49 H49       -11.0903    4.5476   68.0351 H       1  ZINC000505965769    0.0800
     50 H50       -11.3636    5.4874   65.4228 H       1  ZINC000505965769    0.0700
     51 H51        -9.7912    5.1762   66.2075 H       1  ZINC000505965769    0.0700
     52 H52       -10.6899   -5.4246   58.1727 H       1  ZINC000505965769    0.1500
@<TRIPOS>BOND
     1     1     2    1
     2     1    32    1
     3     1    33    1
     4     1    34    1
     5     2     3    1
     6     3    31   ar
     7     3     4   ar
     8     4     5   ar
     9     4    35    1
    10     5     6   ar
    11     5    36    1
    12     6     7    1
    13     6    29   ar
    14     7     8    2
    15     7     9    1
    16     9    10    1
    17     9    37    1
    18     9    38    1
    19    10    11    1
    20    10    39    1
    21    10    40    1
    22    11    12    2
    23    11    13   am
    24    13    14    1
    25    13    41    1
    26    14    15    1
    27    14    16    1
    28    14    23    1
    29    16    22   ar
    30    16    17   ar
    31    17    18   ar
    32    17    42    1
    33    18    19   ar
    34    18    43    1
    35    19    20    1
    36    19    21   ar
    37    21    22   ar
    38    21    44    1
    39    22    45    1
    40    23    24    1
    41    23    28    1
    42    23    25    1
    43    25    26    1
    44    25    46    1
    45    25    47    1
    46    26    27    1
    47    26    48    1
    48    26    49    1
    49    27    28    1
    50    27    50    1
    51    27    51    1
    52    29    30    1
    53    29    31   ar
    54    31    52    1
@<TRIPOS>SUBSTRUCTURE
     1 ZINC000505965769        1 TEMP              0 ****  ****    0 ROOT


##########                                Name:    ZINC000512699033
##########                DOCK_Rotatable_Bonds:                   9
##########                         Heavy_Atoms:                  30
##########                    Molecular_Weight:              405.54
##########                DOCK_Rotatable_Bonds:                   9
##########                       Formal_Charge:           0.0199988
##########                     HBond_Acceptors:                   5
##########                        HBond_Donors:                   2
##########                         Heavy_Atoms:                  30
##########                          Grid_Score:          -36.640854
##########                     Grid_vdw_energy:          -35.469341
##########                      Grid_es_energy:           -1.171512
##########           Internal_energy_repulsive:           12.279953

@<TRIPOS>MOLECULE
ZINC000512699033
 61 64 1 0 0
SMALL
USER_CHARGES


@<TRIPOS>ATOM
      1 O1        -11.1514   -3.4249   54.3214 O.2     1  ZINC000512699033   -0.5100
      2 C2        -11.6725   -2.3505   54.5339 C.2     1  ZINC000512699033    0.5200
      3 C3        -11.0190   -1.0854   54.0407 C.3     1  ZINC000512699033   -0.1500
      4 C4        -10.2438   -1.3795   52.7548 C.3     1  ZINC000512699033    0.1300
      5 N5         -9.5028   -0.1835   52.3468 N.am    1  ZINC000512699033   -0.7300
      6 C6         -8.3676   -0.3058   51.6307 C.2     1  ZINC000512699033    0.5200
      7 O7         -7.9601   -1.4058   51.3231 O.2     1  ZINC000512699033   -0.5300
      8 C8         -7.6043    0.9246   51.2125 C.3     1  ZINC000512699033   -0.1100
      9 C9         -7.7890    2.0210   52.2634 C.3     1  ZINC000512699033   -0.1100
     10 C10        -7.0141    3.2702   51.8388 C.3     1  ZINC000512699033   -0.1200
     11 C11        -5.5278    2.9299   51.7125 C.3     1  ZINC000512699033   -0.1200
     12 C12        -5.3432    1.8334   50.6615 C.3     1  ZINC000512699033   -0.1200
     13 C13        -6.1180    0.5843   51.0861 C.3     1  ZINC000512699033   -0.1000
     14 N14       -12.8388   -2.2885   55.2065 N.am    1  ZINC000512699033   -0.6600
     15 C15       -13.4457   -3.4632   55.6644 C.ar    1  ZINC000512699033    0.1700
     16 C16       -13.9631   -4.3784   54.7574 C.ar    1  ZINC000512699033   -0.1400
     17 C17       -14.5610   -5.5374   55.2127 C.ar    1  ZINC000512699033   -0.1000
     18 C18       -14.6450   -5.7864   56.5701 C.ar    1  ZINC000512699033   -0.1400
     19 C19       -14.1306   -4.8769   57.4762 C.ar    1  ZINC000512699033   -0.0900
     20 C20       -13.5266   -3.7191   57.0272 C.ar    1  ZINC000512699033   -0.1200
     21 C21       -12.9663   -2.7286   58.0152 C.3     1  ZINC000512699033    0.0900
     22 N22       -12.0595   -3.4202   58.9412 N.3     1  ZINC000512699033   -0.4700
     23 C23       -10.7885   -3.7744   58.2728 C.3     1  ZINC000512699033    0.0500
     24 C24        -9.7673   -3.7085   59.4317 C.3     1  ZINC000512699033   -0.0900
     25 C25       -10.4172   -2.7386   60.3983 C.ar    1  ZINC000512699033   -0.1400
     26 C26        -9.9088   -2.0382   61.4717 C.ar    1  ZINC000512699033   -0.0800
     27 C27       -10.7293   -1.1972   62.2022 C.ar    1  ZINC000512699033   -0.1400
     28 C28       -12.0603   -1.0598   61.8538 C.ar    1  ZINC000512699033   -0.0900
     29 C29       -12.5743   -1.7601   60.7821 C.ar    1  ZINC000512699033   -0.1400
     30 C30       -11.7550   -2.6115   60.0431 C.ar    1  ZINC000512699033    0.0900
     31 H31       -11.7841   -0.3354   53.8402 H       1  ZINC000512699033    0.1100
     32 H32       -10.3332   -0.7106   54.8006 H       1  ZINC000512699033    0.1000
     33 H33        -9.5450   -2.1974   52.9308 H       1  ZINC000512699033    0.0800
     34 H34       -10.9416   -1.6613   51.9663 H       1  ZINC000512699033    0.0800
     35 H35        -9.8293    0.6964   52.5917 H       1  ZINC000512699033    0.4000
     36 H36        -7.9797    1.2756   50.2512 H       1  ZINC000512699033    0.1000
     37 H37        -8.8478    2.2635   52.3535 H       1  ZINC000512699033    0.0700
     38 H38        -7.4136    1.6700   53.2246 H       1  ZINC000512699033    0.0700
     39 H39        -7.3895    3.6213   50.8776 H       1  ZINC000512699033    0.0600
     40 H40        -7.1456    4.0513   52.5875 H       1  ZINC000512699033    0.0700
     41 H41        -4.9758    3.8198   51.4099 H       1  ZINC000512699033    0.0600
     42 H42        -5.1525    2.5787   52.6737 H       1  ZINC000512699033    0.0600
     43 H43        -5.7185    2.1844   49.7003 H       1  ZINC000512699033    0.0600
     44 H44        -4.2842    1.5910   50.5715 H       1  ZINC000512699033    0.0700
     45 H45        -5.7427    0.2332   52.0474 H       1  ZINC000512699033    0.0700
     46 H46        -5.9865   -0.1969   50.3374 H       1  ZINC000512699033    0.0700
     47 H47       -13.2576   -1.4295   55.3729 H       1  ZINC000512699033    0.4200
     48 H48       -13.8983   -4.1840   53.6969 H       1  ZINC000512699033    0.1500
     49 H49       -14.9637   -6.2494   54.5076 H       1  ZINC000512699033    0.1300
     50 H50       -15.1137   -6.6929   56.9236 H       1  ZINC000512699033    0.1200
     51 H51       -14.1978   -5.0742   58.5358 H       1  ZINC000512699033    0.1200
     52 H52       -12.4177   -1.9530   57.4807 H       1  ZINC000512699033    0.0600
     53 H53       -13.7825   -2.2746   58.5771 H       1  ZINC000512699033    0.0900
     54 H54       -10.8375   -4.7810   57.8574 H       1  ZINC000512699033    0.1000
     55 H55       -10.5427   -3.0471   57.4991 H       1  ZINC000512699033    0.0600
     56 H56        -9.6431   -4.6882   59.8930 H       1  ZINC000512699033    0.0900
     57 H57        -8.8104   -3.3214   59.0814 H       1  ZINC000512699033    0.0800
     58 H58        -8.8690   -2.1465   61.7427 H       1  ZINC000512699033    0.1200
     59 H59       -10.3309   -0.6494   63.0433 H       1  ZINC000512699033    0.1300
     60 H60       -12.7001   -0.4020   62.4232 H       1  ZINC000512699033    0.1300
     61 H61       -13.6149   -1.6486   60.5153 H       1  ZINC000512699033    0.1200
@<TRIPOS>BOND
     1     1     2    2
     2     2     3    1
     3     2    14   am
     4     3     4    1
     5     3    31    1
     6     3    32    1
     7     4     5    1
     8     4    33    1
     9     4    34    1
    10     5     6   am
    11     5    35    1
    12     6     7    2
    13     6     8    1
    14     8    13    1
    15     8     9    1
    16     8    36    1
    17     9    10    1
    18     9    37    1
    19     9    38    1
    20    10    11    1
    21    10    39    1
    22    10    40    1
    23    11    12    1
    24    11    41    1
    25    11    42    1
    26    12    13    1
    27    12    43    1
    28    12    44    1
    29    13    45    1
    30    13    46    1
    31    14    15    1
    32    14    47    1
    33    15    20   ar
    34    15    16   ar
    35    16    17   ar
    36    16    48    1
    37    17    18   ar
    38    17    49    1
    39    18    19   ar
    40    18    50    1
    41    19    20   ar
    42    19    51    1
    43    20    21    1
    44    21    22    1
    45    21    52    1
    46    21    53    1
    47    22    30    1
    48    22    23    1
    49    23    24    1
    50    23    54    1
    51    23    55    1
    52    24    25    1
    53    24    56    1
    54    24    57    1
    55    25    30   ar
    56    25    26   ar
    57    26    27   ar
    58    26    58    1
    59    27    28   ar
    60    27    59    1
    61    28    29   ar
    62    28    60    1
    63    29    30   ar
    64    29    61    1
@<TRIPOS>SUBSTRUCTURE
     1 ZINC000512699033        1 TEMP              0 ****  ****    0 ROOT


##########                                Name:    ZINC001326371752
##########                DOCK_Rotatable_Bonds:                   5
##########                         Heavy_Atoms:                  25
##########                    Molecular_Weight:             360.397
##########                DOCK_Rotatable_Bonds:                   5
##########                       Formal_Charge:           0.0199999
##########                     HBond_Acceptors:                  10
##########                        HBond_Donors:                   0
##########                         Heavy_Atoms:                  25
##########                          Grid_Score:          -36.629967
##########                     Grid_vdw_energy:          -34.525246
##########                      Grid_es_energy:           -2.104719
##########           Internal_energy_repulsive:           12.332834

@<TRIPOS>MOLECULE
ZINC001326371752
 41 44 1 0 0
SMALL
USER_CHARGES


@<TRIPOS>ATOM
      1 C1        -14.5716    0.3190   48.2395 C.3     1  ZINC001326371752    0.0300
      2 O2        -15.2572   -0.8189   48.7662 O.3     1  ZINC001326371752   -0.3800
      3 C3        -14.4292   -1.6899   49.5394 C.3     1  ZINC001326371752    0.0500
      4 C4        -13.8719   -0.9281   50.7435 C.3     1  ZINC001326371752    0.1200
      5 N5        -13.1020   -1.8450   51.5877 N.pl3   1  ZINC001326371752   -0.2800
      6 N6        -11.8623   -2.1661   51.4247 N.2     1  ZINC001326371752   -0.0800
      7 N7        -11.4917   -2.9967   52.3400 N.2     1  ZINC001326371752   -0.2500
      8 C8        -12.5254   -3.2350   53.1390 C.2     1  ZINC001326371752   -0.0400
      9 C9        -13.5615   -2.4953   52.6717 C.2     1  ZINC001326371752    0.0000
     10 C10       -14.9335   -2.4567   53.2888 C.3     1  ZINC001326371752   -0.0600
     11 C11       -15.0972   -3.6770   54.2046 C.3     1  ZINC001326371752    0.1200
     12 N12       -13.8862   -3.8337   55.0236 N.am    1  ZINC001326371752   -0.6100
     13 C13       -13.9384   -3.7036   56.3640 C.2     1  ZINC001326371752    0.6100
     14 O14       -14.9967   -3.4534   56.9103 O.2     1  ZINC001326371752   -0.5100
     15 C15       -12.7191   -3.8634   57.1648 C.2     1  ZINC001326371752   -0.3400
     16 C16       -12.0351   -5.0844   57.1858 C.2     1  ZINC001326371752    0.2400
     17 N17       -10.9422   -5.1922   57.9171 N.2     1  ZINC001326371752   -0.5100
     18 C18       -10.4740   -4.1776   58.6320 C.2     1  ZINC001326371752    0.2900
     19 S19        -9.0896   -4.0694   59.6509 S.3     1  ZINC001326371752    0.2500
     20 C20        -9.3644   -2.3781   60.0972 C.2     1  ZINC001326371752   -0.2100
     21 C21       -10.4640   -2.0195   59.4562 C.2     1  ZINC001326371752    0.0500
     22 N22       -11.0780   -2.9609   58.6659 N.am    1  ZINC001326371752   -0.4600
     23 C23       -12.2111   -2.7866   57.9239 C.2     1  ZINC001326371752    0.5500
     24 O24       -12.7826   -1.7101   57.9204 O.2     1  ZINC001326371752   -0.5000
     25 C25       -12.6116   -4.1334   54.3466 C.3     1  ZINC001326371752    0.2000
     26 H26       -15.2685    0.9296   47.6657 H       1  ZINC001326371752    0.0900
     27 H27       -14.1624    0.9085   49.0601 H       1  ZINC001326371752    0.0500
     28 H28       -13.7607   -0.0133   47.5914 H       1  ZINC001326371752    0.0500
     29 H29       -15.0192   -2.5380   49.8873 H       1  ZINC001326371752    0.0600
     30 H30       -13.6048   -2.0492   48.9234 H       1  ZINC001326371752    0.0600
     31 H31       -13.2240   -0.1234   50.3961 H       1  ZINC001326371752    0.1200
     32 H32       -14.6956   -0.5080   51.3206 H       1  ZINC001326371752    0.1200
     33 H33       -15.0458   -1.5435   53.8733 H       1  ZINC001326371752    0.0900
     34 H34       -15.6885   -2.4854   52.5032 H       1  ZINC001326371752    0.1000
     35 H35       -15.9600   -3.5314   54.8546 H       1  ZINC001326371752    0.1100
     36 H36       -15.2444   -4.5705   53.5977 H       1  ZINC001326371752    0.0800
     37 H37       -12.3965   -5.9253   56.6125 H       1  ZINC001326371752    0.1900
     38 H38        -8.7619   -1.7686   60.7543 H       1  ZINC001326371752    0.2200
     39 H39       -10.8654   -1.0214   59.5506 H       1  ZINC001326371752    0.2000
     40 H40       -12.5962   -5.1761   54.0291 H       1  ZINC001326371752    0.1000
     41 H41       -11.7781   -3.9373   55.0210 H       1  ZINC001326371752    0.1000
@<TRIPOS>BOND
     1     1     2    1
     2     1    26    1
     3     1    27    1
     4     1    28    1
     5     2     3    1
     6     3     4    1
     7     3    29    1
     8     3    30    1
     9     4     5    1
    10     4    31    1
    11     4    32    1
    12     5     9    1
    13     5     6    1
    14     6     7    2
    15     7     8    1
    16     8    25    1
    17     8     9    2
    18     9    10    1
    19    10    11    1
    20    10    33    1
    21    10    34    1
    22    11    12    1
    23    11    35    1
    24    11    36    1
    25    12    13   am
    26    12    25    1
    27    13    14    2
    28    13    15    1
    29    15    23    1
    30    15    16    2
    31    16    17    1
    32    16    37    1
    33    17    18    2
    34    18    22    1
    35    18    19    1
    36    19    20    1
    37    20    21    2
    38    20    38    1
    39    21    22    1
    40    21    39    1
    41    22    23   am
    42    23    24    2
    43    25    40    1
    44    25    41    1
@<TRIPOS>SUBSTRUCTURE
     1 ZINC001326371752        1 TEMP              0 ****  ****    0 ROOT


##########                                Name:    ZINC000506156755
##########                DOCK_Rotatable_Bonds:                   7
##########                         Heavy_Atoms:                  30
##########                    Molecular_Weight:             400.434
##########                DOCK_Rotatable_Bonds:                   7
##########                       Formal_Charge:          -0.0200001
##########                     HBond_Acceptors:                   6
##########                        HBond_Donors:                   1
##########                         Heavy_Atoms:                  30
##########                          Grid_Score:          -36.622757
##########                     Grid_vdw_energy:          -35.771622
##########                      Grid_es_energy:           -0.851135
##########           Internal_energy_repulsive:           17.370939

@<TRIPOS>MOLECULE
ZINC000506156755
 50 53 1 0 0
SMALL
USER_CHARGES


@<TRIPOS>ATOM
      1 C1        -11.4279   -2.5030   51.9144 C.3     1  ZINC000506156755   -0.1600
      2 C2        -11.0243   -1.6554   53.1225 C.3     1  ZINC000506156755    0.1900
      3 H3         -9.9678   -1.8121   53.3397 H       1  ZINC000506156755    0.1000
      4 N4        -11.8253   -2.0487   54.2844 N.am    1  ZINC000506156755   -0.7200
      5 C5        -11.6629   -3.2689   54.8331 C.2     1  ZINC000506156755    0.5000
      6 O6        -10.8546   -4.0419   54.3640 O.2     1  ZINC000506156755   -0.5200
      7 C7        -12.4855   -3.6728   56.0295 C.3     1  ZINC000506156755    0.0900
      8 N8        -11.8152   -3.2306   57.2547 N.am    1  ZINC000506156755   -0.5600
      9 C9        -11.8331   -1.9680   57.7189 C.2     1  ZINC000506156755    0.5800
     10 O10       -12.3986   -1.0287   57.1966 O.2     1  ZINC000506156755   -0.4600
     11 C11       -11.0498   -1.9155   58.9713 C.ar    1  ZINC000506156755   -0.1400
     12 C12       -10.7273   -0.9113   59.8694 C.ar    1  ZINC000506156755   -0.0400
     13 C13        -9.9489   -1.2050   60.9785 C.ar    1  ZINC000506156755   -0.0900
     14 C14        -9.4932   -2.4917   61.1937 C.ar    1  ZINC000506156755   -0.0900
     15 C15        -9.8080   -3.5069   60.3034 C.ar    1  ZINC000506156755   -0.0400
     16 C16       -10.5849   -3.2283   59.1908 C.ar    1  ZINC000506156755   -0.1400
     17 C17       -11.1057   -4.0348   58.0668 C.2     1  ZINC000506156755    0.5800
     18 O18       -10.9222   -5.2241   57.9029 O.2     1  ZINC000506156755   -0.4600
     19 C19       -11.2637   -0.1992   52.8170 C.ar    1  ZINC000506156755   -0.1200
     20 C20       -12.4981    0.3663   53.0700 C.ar    1  ZINC000506156755   -0.0800
     21 C21       -12.7184    1.7026   52.7902 C.ar    1  ZINC000506156755   -0.1400
     22 C22       -11.7040    2.4760   52.2570 C.ar    1  ZINC000506156755   -0.0800
     23 C23       -10.4674    1.9153   52.0020 C.ar    1  ZINC000506156755   -0.1900
     24 C24       -10.2422    0.5762   52.2866 C.ar    1  ZINC000506156755    0.1300
     25 O25        -9.0267    0.0224   52.0373 O.3     1  ZINC000506156755   -0.2500
     26 C26        -7.9835    0.8576   51.7912 C.ar    1  ZINC000506156755    0.0800
     27 C27        -7.6451    1.8376   52.7134 C.ar    1  ZINC000506156755   -0.1400
     28 C28        -6.5842    2.6854   52.4607 C.ar    1  ZINC000506156755   -0.1000
     29 C29        -5.8597    2.5581   51.2899 C.ar    1  ZINC000506156755   -0.1200
     30 C30        -6.1948    1.5825   50.3692 C.ar    1  ZINC000506156755   -0.1000
     31 C31        -7.2512    0.7284   50.6196 C.ar    1  ZINC000506156755   -0.1200
     32 H32       -11.2548   -3.5562   52.1354 H       1  ZINC000506156755    0.0700
     33 H33       -12.4845   -2.3462   51.6972 H       1  ZINC000506156755    0.0600
     34 H34       -10.8320   -2.2104   51.0499 H       1  ZINC000506156755    0.0700
     35 H35       -12.4726   -1.4308   54.6589 H       1  ZINC000506156755    0.4000
     36 H36       -13.4701   -3.2094   55.9665 H       1  ZINC000506156755    0.1300
     37 H37       -12.5946   -4.7572   56.0460 H       1  ZINC000506156755    0.1300
     38 H38       -11.0804    0.0962   59.7061 H       1  ZINC000506156755    0.1400
     39 H39        -9.6967   -0.4226   61.6790 H       1  ZINC000506156755    0.1400
     40 H40        -8.8873   -2.7080   62.0611 H       1  ZINC000506156755    0.1400
     41 H41        -9.4495   -4.5108   60.4768 H       1  ZINC000506156755    0.1400
     42 H42       -13.2924   -0.2358   53.4862 H       1  ZINC000506156755    0.1300
     43 H43       -13.6845    2.1427   52.9884 H       1  ZINC000506156755    0.1300
     44 H44       -11.8786    3.5193   52.0391 H       1  ZINC000506156755    0.1300
     45 H45        -9.6754    2.5197   51.5851 H       1  ZINC000506156755    0.1300
     46 H46        -8.2109    1.9375   53.6279 H       1  ZINC000506156755    0.1300
     47 H47        -6.3207    3.4485   53.1781 H       1  ZINC000506156755    0.1300
     48 H48        -5.0308    3.2223   51.0941 H       1  ZINC000506156755    0.1300
     49 H49        -5.6273    1.4852   49.4555 H       1  ZINC000506156755    0.1300
     50 H50        -7.5123   -0.0337   49.9004 H       1  ZINC000506156755    0.1300
@<TRIPOS>BOND
     1     1     2    1
     2     1    32    1
     3     1    33    1
     4     1    34    1
     5     2     3    1
     6     2     4    1
     7     2    19    1
     8     4     5   am
     9     4    35    1
    10     5     6    2
    11     5     7    1
    12     7     8    1
    13     7    36    1
    14     7    37    1
    15     8    17   am
    16     8     9   am
    17     9    10    2
    18     9    11    1
    19    11    16   ar
    20    11    12   ar
    21    12    13   ar
    22    12    38    1
    23    13    14   ar
    24    13    39    1
    25    14    15   ar
    26    14    40    1
    27    15    16   ar
    28    15    41    1
    29    16    17    1
    30    17    18    2
    31    19    24   ar
    32    19    20   ar
    33    20    21   ar
    34    20    42    1
    35    21    22   ar
    36    21    43    1
    37    22    23   ar
    38    22    44    1
    39    23    24   ar
    40    23    45    1
    41    24    25    1
    42    25    26    1
    43    26    31   ar
    44    26    27   ar
    45    27    28   ar
    46    27    46    1
    47    28    29   ar
    48    28    47    1
    49    29    30   ar
    50    29    48    1
    51    30    31   ar
    52    30    49    1
    53    31    50    1
@<TRIPOS>SUBSTRUCTURE
     1 ZINC000506156755        1 TEMP              0 ****  ****    0 ROOT


##########                                Name:    ZINC000011620562
##########                DOCK_Rotatable_Bonds:                   9
##########                         Heavy_Atoms:                  29
##########                    Molecular_Weight:             417.448
##########                DOCK_Rotatable_Bonds:                   9
##########                       Formal_Charge:           0.0299999
##########                     HBond_Acceptors:                  12
##########                        HBond_Donors:                   1
##########                         Heavy_Atoms:                  29
##########                          Grid_Score:          -36.621502
##########                     Grid_vdw_energy:          -35.379078
##########                      Grid_es_energy:           -1.242423
##########           Internal_energy_repulsive:           10.214520

@<TRIPOS>MOLECULE
ZINC000011620562
 48 50 1 0 0
SMALL
USER_CHARGES


@<TRIPOS>ATOM
      1 C1        -12.9414   -1.6125   51.6755 C.3     1  ZINC000011620562    0.0400
      2 O2        -11.6858   -2.2702   51.9904 O.3     1  ZINC000011620562   -0.3500
      3 C3        -11.7533   -3.3957   52.7189 C.2     1  ZINC000011620562    0.4600
      4 O4        -10.7462   -4.0144   52.9695 O.2     1  ZINC000011620562   -0.5000
      5 C5        -13.0852   -3.8874   53.2242 C.3     1  ZINC000011620562    0.1300
      6 N6        -12.8929   -4.6103   54.4838 N.am    1  ZINC000011620562   -0.7200
      7 C7        -13.9437   -5.1953   55.0923 C.2     1  ZINC000011620562    0.5400
      8 O8        -15.0481   -5.1244   54.5963 O.2     1  ZINC000011620562   -0.5200
      9 C9        -13.7462   -5.9374   56.3889 C.3     1  ZINC000011620562   -0.1600
     10 S10       -13.0816   -4.8065   57.6360 S.3     1  ZINC000011620562    0.1400
     11 C11       -14.5332   -3.8828   58.0161 C.2     1  ZINC000011620562    0.2100
     12 N12       -15.7760   -4.2487   57.7850 N.2     1  ZINC000011620562   -0.3400
     13 N13       -16.5933   -3.3428   58.1855 N.2     1  ZINC000011620562   -0.0300
     14 N14       -15.9482   -2.3488   58.6929 N.2     1  ZINC000011620562   -0.0800
     15 N15       -14.5808   -2.6639   58.6071 N.pl3   1  ZINC000011620562   -0.2600
     16 C16       -13.4937   -1.8786   59.0363 C.2     1  ZINC000011620562   -0.1300
     17 C17       -12.9113   -0.8774   58.3383 C.2     1  ZINC000011620562    0.2500
     18 C18       -13.3151   -0.4096   56.9639 C.3     1  ZINC000011620562   -0.1100
     19 N19       -11.8926   -0.3613   59.0931 N.pl3   1  ZINC000011620562   -0.3700
     20 C20       -11.0086    0.7401   58.7039 C.3     1  ZINC000011620562    0.0900
     21 N21       -11.8413   -1.0673   60.3021 N.am    1  ZINC000011620562   -0.3600
     22 C22       -10.9393   -0.8463   61.3476 C.ar    1  ZINC000011620562    0.1400
     23 C23       -11.0315    0.3085   62.1140 C.ar    1  ZINC000011620562   -0.1300
     24 C24       -10.1395    0.5234   63.1461 C.ar    1  ZINC000011620562   -0.1000
     25 C25        -9.1554   -0.4095   63.4171 C.ar    1  ZINC000011620562   -0.1100
     26 C26        -9.0606   -1.5600   62.6559 C.ar    1  ZINC000011620562   -0.1000
     27 C27        -9.9530   -1.7838   61.6259 C.ar    1  ZINC000011620562   -0.1000
     28 C28       -12.8203   -1.9944   60.2800 C.2     1  ZINC000011620562    0.5500
     29 O29       -13.0756   -2.7917   61.1642 O.2     1  ZINC000011620562   -0.5000
     30 H30       -13.4471   -1.3332   52.5999 H       1  ZINC000011620562    0.0700
     31 H31       -12.7448   -0.7180   51.0844 H       1  ZINC000011620562    0.1100
     32 H32       -13.5749   -2.2924   51.1060 H       1  ZINC000011620562    0.0700
     33 H33       -13.7470   -3.0374   53.3905 H       1  ZINC000011620562    0.1200
     34 H34       -13.5298   -4.5552   52.4862 H       1  ZINC000011620562    0.1200
     35 H35       -12.0093   -4.6680   54.8798 H       1  ZINC000011620562    0.4200
     36 H36       -14.7027   -6.3332   56.7304 H       1  ZINC000011620562    0.1400
     37 H37       -13.0471   -6.7593   56.2343 H       1  ZINC000011620562    0.1400
     38 H38       -14.1566   -1.0051   56.6099 H       1  ZINC000011620562    0.1000
     39 H39       -13.6059    0.6400   57.0081 H       1  ZINC000011620562    0.1000
     40 H40       -12.4747   -0.5252   56.2794 H       1  ZINC000011620562    0.1000
     41 H41       -11.2616    1.0704   57.6964 H       1  ZINC000011620562    0.1100
     42 H42       -11.1332    1.5695   59.4002 H       1  ZINC000011620562    0.0900
     43 H43        -9.9732    0.4000   58.7255 H       1  ZINC000011620562    0.0900
     44 H44       -11.7997    1.0377   61.9025 H       1  ZINC000011620562    0.1300
     45 H45       -10.2104    1.4214   63.7421 H       1  ZINC000011620562    0.1300
     46 H46        -8.4591   -0.2389   64.2249 H       1  ZINC000011620562    0.1300
     47 H47        -8.2905   -2.2863   62.8697 H       1  ZINC000011620562    0.1400
     48 H48        -9.8787   -2.6827   61.0319 H       1  ZINC000011620562    0.1400
@<TRIPOS>BOND
     1     1     2    1
     2     1    30    1
     3     1    31    1
     4     1    32    1
     5     2     3    1
     6     3     4    2
     7     3     5    1
     8     5     6    1
     9     5    33    1
    10     5    34    1
    11     6     7   am
    12     6    35    1
    13     7     8    2
    14     7     9    1
    15     9    10    1
    16     9    36    1
    17     9    37    1
    18    10    11    1
    19    11    15    1
    20    11    12    2
    21    12    13    1
    22    13    14    2
    23    14    15    1
    24    15    16    1
    25    16    28    1
    26    16    17    2
    27    17    18    1
    28    17    19    1
    29    18    38    1
    30    18    39    1
    31    18    40    1
    32    19    20    1
    33    19    21    1
    34    20    41    1
    35    20    42    1
    36    20    43    1
    37    21    22    1
    38    21    28   am
    39    22    27   ar
    40    22    23   ar
    41    23    24   ar
    42    23    44    1
    43    24    25   ar
    44    24    45    1
    45    25    26   ar
    46    25    46    1
    47    26    27   ar
    48    26    47    1
    49    27    48    1
    50    28    29    2
@<TRIPOS>SUBSTRUCTURE
     1 ZINC000011620562        1 TEMP              0 ****  ****    0 ROOT


##########                                Name:    ZINC000753658424
##########                DOCK_Rotatable_Bonds:                   8
##########                         Heavy_Atoms:                  24
##########                    Molecular_Weight:             332.399
##########                DOCK_Rotatable_Bonds:                   8
##########                       Formal_Charge:        -9.16421e-07
##########                     HBond_Acceptors:                   6
##########                        HBond_Donors:                   3
##########                         Heavy_Atoms:                  24
##########                          Grid_Score:          -36.613064
##########                     Grid_vdw_energy:          -34.487217
##########                      Grid_es_energy:           -2.125846
##########           Internal_energy_repulsive:           16.128729

@<TRIPOS>MOLECULE
ZINC000753658424
 48 49 1 0 0
SMALL
USER_CHARGES


@<TRIPOS>ATOM
      1 C1        -14.9868   -2.2355   54.1259 C.3     1  ZINC000753658424   -0.2000
      2 C2        -14.5148   -3.6086   54.5295 C.2     1  ZINC000753658424    0.4400
      3 O3        -15.2304   -4.5722   54.3530 O.2     1  ZINC000753658424   -0.4500
      4 C4        -13.1907   -3.7800   55.1353 C.2     1  ZINC000753658424   -0.2500
      5 C5        -11.9732   -3.7731   54.4726 C.2     1  ZINC000753658424    0.1000
      6 C6        -11.7769   -3.5865   52.9901 C.3     1  ZINC000753658424   -0.1000
      7 N7        -10.9998   -3.9603   55.3759 N.pl3   1  ZINC000753658424   -0.5300
      8 C8        -11.5597   -4.0910   56.6286 C.2     1  ZINC000753658424   -0.0600
      9 C9        -10.8231   -4.3090   57.8802 C.2     1  ZINC000753658424    0.5900
     10 O10       -10.6519   -5.4394   58.2963 O.2     1  ZINC000753658424   -0.5200
     11 N11       -10.3369   -3.2569   58.5680 N.am    1  ZINC000753658424   -0.7300
     12 C12        -9.6035   -3.4743   59.8174 C.3     1  ZINC000753658424    0.0900
     13 C13        -9.5675   -2.1726   60.6207 C.3     1  ZINC000753658424    0.1900
     14 H14        -9.0175   -1.4157   60.0617 H       1  ZINC000753658424    0.1300
     15 O15        -8.9199   -2.4039   61.8735 O.3     1  ZINC000753658424   -0.5500
     16 C16       -10.9754   -1.6932   60.8640 C.2     1  ZINC000753658424   -0.0600
     17 C17       -11.3557   -0.4112   61.0092 C.2     1  ZINC000753658424   -0.1800
     18 C18       -12.7541   -0.4199   61.2174 C.2     1  ZINC000753658424   -0.2100
     19 C19       -13.1446   -1.7067   61.1869 C.2     1  ZINC000753658424    0.0000
     20 C20       -14.5564   -2.2038   61.3626 C.3     1  ZINC000753658424   -0.0800
     21 O21       -12.0639   -2.4731   60.9667 O.3     1  ZINC000753658424   -0.1700
     22 C22       -12.9121   -3.9778   56.5092 C.2     1  ZINC000753658424   -0.0100
     23 C23       -13.9207   -4.0574   57.6260 C.3     1  ZINC000753658424   -0.0500
     24 C24       -14.8948   -2.8824   57.5184 C.3     1  ZINC000753658424   -0.1500
     25 C25       -14.6949   -5.3729   57.5214 C.3     1  ZINC000753658424   -0.1500
     26 H26       -15.9518   -2.3155   53.6254 H       1  ZINC000753658424    0.0800
     27 H27       -15.0885   -1.6109   55.0133 H       1  ZINC000753658424    0.1000
     28 H28       -14.2615   -1.7870   53.4471 H       1  ZINC000753658424    0.0900
     29 H29       -11.5745   -2.5364   52.7798 H       1  ZINC000753658424    0.0900
     30 H30       -10.9350   -4.1929   52.6559 H       1  ZINC000753658424    0.0800
     31 H31       -12.6793   -3.8954   52.4624 H       1  ZINC000753658424    0.0900
     32 H32       -10.0508   -3.9978   55.1786 H       1  ZINC000753658424    0.4200
     33 H33       -10.4725   -2.3557   58.2356 H       1  ZINC000753658424    0.4000
     34 H34       -10.1022   -4.2478   60.4014 H       1  ZINC000753658424    0.0900
     35 H35        -8.5852   -3.7898   59.5909 H       1  ZINC000753658424    0.0800
     36 H36        -7.9778   -2.6082   61.7975 H       1  ZINC000753658424    0.3900
     37 H37       -10.7156    0.4580   60.9741 H       1  ZINC000753658424    0.1500
     38 H38       -13.3872    0.4413   61.3715 H       1  ZINC000753658424    0.1500
     39 H39       -15.0476   -2.2538   60.3908 H       1  ZINC000753658424    0.0800
     40 H40       -14.5389   -3.1964   61.8124 H       1  ZINC000753658424    0.0800
     41 H41       -15.1040   -1.5204   62.0116 H       1  ZINC000753658424    0.0900
     42 H42       -13.4047   -4.0147   58.5852 H       1  ZINC000753658424    0.1100
     43 H43       -15.4958   -2.9904   56.6155 H       1  ZINC000753658424    0.0500
     44 H44       -15.5482   -2.8710   58.3907 H       1  ZINC000753658424    0.0600
     45 H45       -14.3341   -1.9487   57.4721 H       1  ZINC000753658424    0.0600
     46 H46       -14.0132   -6.2090   57.6775 H       1  ZINC000753658424    0.0500
     47 H47       -15.4772   -5.3954   58.2801 H       1  ZINC000753658424    0.0600
     48 H48       -15.1457   -5.4514   56.5322 H       1  ZINC000753658424    0.0600
@<TRIPOS>BOND
     1     1     2    1
     2     1    26    1
     3     1    27    1
     4     1    28    1
     5     2     3    2
     6     2     4    1
     7     4    22    1
     8     4     5    2
     9     5     6    1
    10     5     7    1
    11     6    29    1
    12     6    30    1
    13     6    31    1
    14     7     8    1
    15     7    32    1
    16     8     9    1
    17     8    22    2
    18     9    10    2
    19     9    11   am
    20    11    12    1
    21    11    33    1
    22    12    13    1
    23    12    34    1
    24    12    35    1
    25    13    14    1
    26    13    15    1
    27    13    16    1
    28    15    36    1
    29    16    21    1
    30    16    17    2
    31    17    18    1
    32    17    37    1
    33    18    19    2
    34    18    38    1
    35    19    20    1
    36    19    21    1
    37    20    39    1
    38    20    40    1
    39    20    41    1
    40    22    23    1
    41    23    24    1
    42    23    25    1
    43    23    42    1
    44    24    43    1
    45    24    44    1
    46    24    45    1
    47    25    46    1
    48    25    47    1
    49    25    48    1
@<TRIPOS>SUBSTRUCTURE
     1 ZINC000753658424        1 TEMP              0 ****  ****    0 ROOT


##########                                Name:    ZINC000420486261
##########                DOCK_Rotatable_Bonds:                   7
##########                         Heavy_Atoms:                  26
##########                    Molecular_Weight:             353.378
##########                DOCK_Rotatable_Bonds:                   7
##########                       Formal_Charge:        -2.98023e-08
##########                     HBond_Acceptors:                   7
##########                        HBond_Donors:                   0
##########                         Heavy_Atoms:                  26
##########                          Grid_Score:          -36.611725
##########                     Grid_vdw_energy:          -36.360283
##########                      Grid_es_energy:           -0.251440
##########           Internal_energy_repulsive:           10.843650

@<TRIPOS>MOLECULE
ZINC000420486261
 45 47 1 0 0
SMALL
USER_CHARGES


@<TRIPOS>ATOM
      1 C1         -4.5816    2.0582   50.3895 C.3     1  ZINC000420486261    0.0400
      2 O2         -5.8212    2.1169   51.1435 O.3     1  ZINC000420486261   -0.3500
      3 C3         -6.6033    1.0209   51.1203 C.2     1  ZINC000420486261    0.5100
      4 O4         -6.3364    0.1001   50.3751 O.2     1  ZINC000420486261   -0.4900
      5 C5         -7.7887    0.9386   52.0036 C.ar    1  ZINC000420486261   -0.0700
      6 C6         -8.2209    2.0526   52.7308 C.ar    1  ZINC000420486261   -0.0900
      7 C7         -9.3336    1.9369   53.5457 C.ar    1  ZINC000420486261    0.1100
      8 N8         -9.9864    0.7993   53.6451 N.ar    1  ZINC000420486261   -0.4200
      9 C9         -9.6149   -0.2845   52.9751 C.ar    1  ZINC000420486261    0.1900
     10 C10       -10.3869   -1.5384   53.1244 C.2     1  ZINC000420486261    0.2200
     11 N11       -11.1784   -1.8583   54.1295 N.2     1  ZINC000420486261   -0.4300
     12 C12       -11.6616   -3.0832   53.8330 C.2     1  ZINC000420486261    0.2200
     13 C13       -12.6020   -3.8801   54.6579 C.ar    1  ZINC000420486261   -0.0600
     14 C14       -13.8795   -4.1667   54.1827 C.ar    1  ZINC000420486261   -0.0300
     15 C15       -14.7509   -4.9086   54.9540 C.ar    1  ZINC000420486261   -0.1600
     16 C16       -14.3604   -5.3695   56.1990 C.ar    1  ZINC000420486261   -0.0600
     17 C17       -13.0955   -5.0910   56.6804 C.ar    1  ZINC000420486261   -0.2200
     18 C18       -12.2081   -4.3520   55.9140 C.ar    1  ZINC000420486261    0.1700
     19 O19       -10.9646   -4.0777   56.3858 O.3     1  ZINC000420486261   -0.2900
     20 C20       -10.8616   -3.6940   57.7585 C.3     1  ZINC000420486261    0.0600
     21 C21       -11.5323   -2.3336   57.9594 C.3     1  ZINC000420486261   -0.0900
     22 C22       -11.9966   -2.2034   59.4114 C.3     1  ZINC000420486261   -0.1500
     23 C23       -10.5321   -1.2201   57.6420 C.3     1  ZINC000420486261   -0.1500
     24 N24       -11.1472   -3.4376   52.6827 N.2     1  ZINC000420486261   -0.3400
     25 O25       -10.4196   -2.5642   52.2601 O.3     1  ZINC000420486261    0.1000
     26 C26        -8.5089   -0.2523   52.1283 C.ar    1  ZINC000420486261   -0.0700
     27 H27        -4.0486    3.0034   50.4925 H       1  ZINC000420486261    0.1100
     28 H28        -3.9614    1.2477   50.7724 H       1  ZINC000420486261    0.0700
     29 H29        -4.8043    1.8794   49.3376 H       1  ZINC000420486261    0.0700
     30 H30        -7.6924    2.9916   52.6577 H       1  ZINC000420486261    0.1600
     31 H31        -9.6711    2.7943   54.1092 H       1  ZINC000420486261    0.1800
     32 H32       -14.1879   -3.8085   53.2116 H       1  ZINC000420486261    0.1400
     33 H33       -15.7414   -5.1300   54.5848 H       1  ZINC000420486261    0.1300
     34 H34       -15.0476   -5.9491   56.7974 H       1  ZINC000420486261    0.1300
     35 H35       -12.7964   -5.4534   57.6528 H       1  ZINC000420486261    0.1400
     36 H36       -11.3563   -4.4386   58.3819 H       1  ZINC000420486261    0.0600
     37 H37        -9.8104   -3.6259   58.0387 H       1  ZINC000420486261    0.0600
     38 H38       -12.3917   -2.2505   57.2942 H       1  ZINC000420486261    0.0800
     39 H39       -11.1371   -2.2865   60.0766 H       1  ZINC000420486261    0.0600
     40 H40       -12.4744   -1.2343   59.5546 H       1  ZINC000420486261    0.0700
     41 H41       -12.7091   -2.9967   59.6375 H       1  ZINC000420486261    0.0600
     42 H42        -9.6726   -1.3032   58.3072 H       1  ZINC000420486261    0.0500
     43 H43       -10.2013   -1.3128   56.6076 H       1  ZINC000420486261    0.0600
     44 H44       -11.0099   -0.2508   57.7852 H       1  ZINC000420486261    0.0600
     45 H45        -8.2085   -1.1352   51.5837 H       1  ZINC000420486261    0.1600
@<TRIPOS>BOND
     1     1     2    1
     2     1    27    1
     3     1    28    1
     4     1    29    1
     5     2     3    1
     6     3     4    2
     7     3     5    1
     8     5    26   ar
     9     5     6   ar
    10     6     7   ar
    11     6    30    1
    12     7     8   ar
    13     7    31    1
    14     8     9   ar
    15     9    10    1
    16     9    26   ar
    17    10    25    1
    18    10    11    2
    19    11    12    1
    20    12    13    1
    21    12    24    2
    22    13    18   ar
    23    13    14   ar
    24    14    15   ar
    25    14    32    1
    26    15    16   ar
    27    15    33    1
    28    16    17   ar
    29    16    34    1
    30    17    18   ar
    31    17    35    1
    32    18    19    1
    33    19    20    1
    34    20    21    1
    35    20    36    1
    36    20    37    1
    37    21    22    1
    38    21    23    1
    39    21    38    1
    40    22    39    1
    41    22    40    1
    42    22    41    1
    43    23    42    1
    44    23    43    1
    45    23    44    1
    46    24    25    1
    47    26    45    1
@<TRIPOS>SUBSTRUCTURE
     1 ZINC000420486261        1 TEMP              0 ****  ****    0 ROOT


##########                                Name:    ZINC000482846390
##########                DOCK_Rotatable_Bonds:                   9
##########                         Heavy_Atoms:                  30
##########                    Molecular_Weight:             420.469
##########                DOCK_Rotatable_Bonds:                   9
##########                       Formal_Charge:          -0.0100011
##########                     HBond_Acceptors:                  11
##########                        HBond_Donors:                   2
##########                         Heavy_Atoms:                  30
##########                          Grid_Score:          -36.592983
##########                     Grid_vdw_energy:          -33.047184
##########                      Grid_es_energy:           -3.545800
##########           Internal_energy_repulsive:           22.052746

@<TRIPOS>MOLECULE
ZINC000482846390
 58 60 1 0 0
SMALL
USER_CHARGES


@<TRIPOS>ATOM
      1 C1         -8.5378    1.3945   65.6472 C.3     1  ZINC000482846390   -0.1000
      2 C2         -9.2319    0.6144   64.5606 C.2     1  ZINC000482846390    0.0900
      3 C3        -10.4669    0.8612   64.0658 C.2     1  ZINC000482846390   -0.2700
      4 C4        -10.7318   -0.0901   63.0753 C.2     1  ZINC000482846390    0.0700
      5 C5        -11.9950   -0.1880   62.2594 C.3     1  ZINC000482846390   -0.0500
      6 C6        -11.6474   -0.6062   60.8293 C.3     1  ZINC000482846390    0.1500
      7 H7        -10.9282   -1.4249   60.8548 H       1  ZINC000482846390    0.1000
      8 C8        -11.0396    0.5835   60.0836 C.3     1  ZINC000482846390   -0.1700
      9 N9        -12.8631   -1.0454   60.1397 N.am    1  ZINC000482846390   -0.6800
     10 C10       -13.3371   -2.2914   60.3374 C.2     1  ZINC000482846390    0.5100
     11 O11       -12.7579   -3.0490   61.0878 O.2     1  ZINC000482846390   -0.5200
     12 C12       -14.5763   -2.7400   59.6326 C.2     1  ZINC000482846390    0.5100
     13 O13       -15.6548   -2.6430   60.1803 O.2     1  ZINC000482846390   -0.5100
     14 N14       -14.4960   -3.2523   58.3885 N.am    1  ZINC000482846390   -0.5900
     15 C15       -15.7069   -3.6917   57.6811 C.3     1  ZINC000482846390    0.0500
     16 C16       -15.7790   -2.9628   56.3336 C.3     1  ZINC000482846390    0.1000
     17 N17       -14.4792   -3.0914   55.6600 N.am    1  ZINC000482846390   -0.6000
     18 C18       -14.3991   -3.6027   54.4156 C.2     1  ZINC000482846390    0.5200
     19 O19       -15.4059   -3.9619   53.8412 O.2     1  ZINC000482846390   -0.5000
     20 C20       -13.0703   -3.7275   53.7430 C.2     1  ZINC000482846390    0.5200
     21 O21       -12.3346   -4.6520   54.0199 O.2     1  ZINC000482846390   -0.5000
     22 N22       -12.6891   -2.8133   52.8290 N.am    1  ZINC000482846390   -0.6000
     23 C23       -13.5615   -1.6804   52.4814 C.3     1  ZINC000482846390    0.0700
     24 C24       -12.7402   -0.3899   52.5795 C.3     1  ZINC000482846390    0.0500
     25 O25       -11.5459   -0.5321   51.8065 O.3     1  ZINC000482846390   -0.3700
     26 C26       -10.6726   -1.5675   52.2638 C.3     1  ZINC000482846390    0.0500
     27 C27       -11.3857   -2.9152   52.1537 C.3     1  ZINC000482846390    0.0700
     28 C28       -13.2682   -2.6520   56.3674 C.3     1  ZINC000482846390    0.0900
     29 C29       -13.1968   -3.3757   57.7127 C.3     1  ZINC000482846390    0.0900
     30 N30        -9.6931   -0.8797   62.9788 N.2     1  ZINC000482846390   -0.2800
     31 N31        -8.7308   -0.4520   63.9026 N.pl3   1  ZINC000482846390   -0.4700
     32 H32        -7.9664    2.2087   65.2015 H       1  ZINC000482846390    0.0800
     33 H33        -9.2808    1.8041   66.3316 H       1  ZINC000482846390    0.0900
     34 H34        -7.8644    0.7349   66.1944 H       1  ZINC000482846390    0.0700
     35 H35       -11.1309    1.6527   64.3804 H       1  ZINC000482846390    0.1500
     36 H36       -12.6581   -0.9303   62.7039 H       1  ZINC000482846390    0.0900
     37 H37       -12.4934    0.7812   62.2436 H       1  ZINC000482846390    0.1100
     38 H38       -10.1351    0.9103   60.5965 H       1  ZINC000482846390    0.0700
     39 H39       -10.7920    0.2855   59.0647 H       1  ZINC000482846390    0.0700
     40 H40       -11.7587    1.4022   60.0580 H       1  ZINC000482846390    0.0600
     41 H41       -13.3268   -0.4394   59.5408 H       1  ZINC000482846390    0.4200
     42 H42       -15.6622   -4.7677   57.5129 H       1  ZINC000482846390    0.0800
     43 H43       -16.5871   -3.4482   58.2763 H       1  ZINC000482846390    0.1600
     44 H44       -16.5570   -3.4116   55.7160 H       1  ZINC000482846390    0.1100
     45 H45       -16.0025   -1.9089   56.4993 H       1  ZINC000482846390    0.0800
     46 H46       -13.9336   -1.8023   51.4642 H       1  ZINC000482846390    0.0900
     47 H47       -14.3998   -1.6358   53.1766 H       1  ZINC000482846390    0.0900
     48 H48       -13.3259    0.4447   52.1943 H       1  ZINC000482846390    0.1100
     49 H49       -12.4794   -0.2024   53.6211 H       1  ZINC000482846390    0.0600
     50 H50        -9.7710   -1.5801   51.6514 H       1  ZINC000482846390    0.1100
     51 H51       -10.4043   -1.3844   53.3043 H       1  ZINC000482846390    0.0600
     52 H52       -10.7835   -3.6892   52.6295 H       1  ZINC000482846390    0.1100
     53 H53       -11.5408   -3.1638   51.1038 H       1  ZINC000482846390    0.0800
     54 H54       -12.3882   -2.8955   55.7722 H       1  ZINC000482846390    0.0900
     55 H55       -13.3130   -1.5759   56.5355 H       1  ZINC000482846390    0.0900
     56 H56       -12.4184   -2.9259   58.3292 H       1  ZINC000482846390    0.1100
     57 H57       -12.9740   -4.4301   57.5495 H       1  ZINC000482846390    0.0800
     58 H58        -7.8604   -0.8548   64.0479 H       1  ZINC000482846390    0.4400
@<TRIPOS>BOND
     1     1     2    1
     2     1    32    1
     3     1    33    1
     4     1    34    1
     5     2    31    1
     6     2     3    2
     7     3     4    1
     8     3    35    1
     9     4     5    1
    10     4    30    2
    11     5     6    1
    12     5    36    1
    13     5    37    1
    14     6     7    1
    15     6     8    1
    16     6     9    1
    17     8    38    1
    18     8    39    1
    19     8    40    1
    20     9    10   am
    21     9    41    1
    22    10    11    2
    23    10    12    1
    24    12    13    2
    25    12    14   am
    26    14    29    1
    27    14    15    1
    28    15    16    1
    29    15    42    1
    30    15    43    1
    31    16    17    1
    32    16    44    1
    33    16    45    1
    34    17    18   am
    35    17    28    1
    36    18    19    2
    37    18    20    1
    38    20    21    2
    39    20    22   am
    40    22    27    1
    41    22    23    1
    42    23    24    1
    43    23    46    1
    44    23    47    1
    45    24    25    1
    46    24    48    1
    47    24    49    1
    48    25    26    1
    49    26    27    1
    50    26    50    1
    51    26    51    1
    52    27    52    1
    53    27    53    1
    54    28    29    1
    55    28    54    1
    56    28    55    1
    57    29    56    1
    58    29    57    1
    59    30    31    1
    60    31    58    1
@<TRIPOS>SUBSTRUCTURE
     1 ZINC000482846390        1 TEMP              0 ****  ****    0 ROOT


##########                                Name:    ZINC000058043838
##########                DOCK_Rotatable_Bonds:                   8
##########                         Heavy_Atoms:                  29
##########                    Molecular_Weight:             412.469
##########                DOCK_Rotatable_Bonds:                   8
##########                       Formal_Charge:           0.0200001
##########                     HBond_Acceptors:                   9
##########                        HBond_Donors:                   0
##########                         Heavy_Atoms:                  29
##########                          Grid_Score:          -36.579330
##########                     Grid_vdw_energy:          -37.634151
##########                      Grid_es_energy:            1.054820
##########           Internal_energy_repulsive:           11.524306

@<TRIPOS>MOLECULE
ZINC000058043838
 49 51 1 0 0
SMALL
USER_CHARGES


@<TRIPOS>ATOM
      1 C1        -15.4135   -3.2433   59.8734 C.3     1  ZINC000058043838    0.0300
      2 O2        -15.1332   -4.4753   59.2058 O.3     1  ZINC000058043838   -0.3800
      3 C3        -15.2528   -4.4061   57.7835 C.3     1  ZINC000058043838    0.0300
      4 C4        -14.2763   -5.3931   57.1409 C.3     1  ZINC000058043838    0.1000
      5 N5        -13.0806   -4.6751   56.6925 N.am    1  ZINC000058043838   -0.5200
      6 C6        -13.0078   -4.2102   55.4296 C.2     1  ZINC000058043838    0.5100
      7 O7        -13.9315   -4.3877   54.6639 O.2     1  ZINC000058043838   -0.4500
      8 C8        -11.7786   -3.4701   54.9686 C.3     1  ZINC000058043838   -0.0900
      9 C9        -12.1903   -2.2661   54.1613 C.ar    1  ZINC000058043838   -0.1400
     10 C10       -12.1493   -2.3025   52.7761 C.ar    1  ZINC000058043838   -0.0500
     11 C11       -12.5377   -1.1712   52.0744 C.ar    1  ZINC000058043838   -0.1700
     12 C12       -12.9500   -0.0532   52.7742 C.ar    1  ZINC000058043838    0.1300
     13 C13       -13.3748    1.1816   52.0220 C.3     1  ZINC000058043838   -0.1100
     14 N14       -12.9764   -0.0545   54.0928 N.ar    1  ZINC000058043838   -0.4800
     15 C15       -12.6191   -1.1135   54.7925 C.ar    1  ZINC000058043838    0.1200
     16 C16       -12.0216   -4.4734   57.5692 C.2     1  ZINC000058043838    0.3100
     17 N17       -11.8982   -3.4659   58.3760 N.2     1  ZINC000058043838   -0.4700
     18 C18       -10.8179   -3.4384   59.1438 C.2     1  ZINC000058043838    0.1100
     19 C19       -10.5589   -2.3423   60.1088 C.ar    1  ZINC000058043838    0.0400
     20 C20        -9.7155   -2.5541   61.1982 C.ar    1  ZINC000058043838   -0.0800
     21 C21        -9.4778   -1.5303   62.0926 C.ar    1  ZINC000058043838   -0.0500
     22 C22       -10.0746   -0.2959   61.9095 C.ar    1  ZINC000058043838   -0.0400
     23 N23        -9.8156    0.7984   62.8724 N.pl3   1  ZINC000058043838    0.0300
     24 O24        -9.0783    0.6109   63.8235 O.2     1  ZINC000058043838   -0.1600
     25 O25       -10.3399    1.8862   62.7134 O.2     1  ZINC000058043838   -0.1600
     26 C26       -10.9121   -0.0798   60.8299 C.ar    1  ZINC000058043838   -0.0500
     27 C27       -11.1533   -1.0948   59.9265 C.ar    1  ZINC000058043838   -0.1100
     28 C28        -9.9730   -4.4734   58.9875 C.2     1  ZINC000058043838   -0.2600
     29 S29       -10.6415   -5.5500   57.7630 S.3     1  ZINC000058043838    0.1500
     30 H30       -14.7188   -2.4772   59.5291 H       1  ZINC000058043838    0.0500
     31 H31       -16.4348   -2.9338   59.6512 H       1  ZINC000058043838    0.0400
     32 H32       -15.3009   -3.3790   60.9490 H       1  ZINC000058043838    0.0900
     33 H33       -16.2716   -4.6609   57.4918 H       1  ZINC000058043838    0.0600
     34 H34       -15.0209   -3.3951   57.4482 H       1  ZINC000058043838    0.0800
     35 H35       -13.9925   -6.1509   57.8711 H       1  ZINC000058043838    0.1200
     36 H36       -14.7539   -5.8725   56.2865 H       1  ZINC000058043838    0.1000
     37 H37       -11.2029   -3.1465   55.8358 H       1  ZINC000058043838    0.1100
     38 H38       -11.1674   -4.1293   54.3522 H       1  ZINC000058043838    0.1100
     39 H39       -11.8222   -3.1905   52.2559 H       1  ZINC000058043838    0.1300
     40 H40       -12.5181   -1.1638   50.9946 H       1  ZINC000058043838    0.1400
     41 H41       -14.4452    1.1345   51.8214 H       1  ZINC000058043838    0.0800
     42 H42       -13.1561    2.0653   52.6213 H       1  ZINC000058043838    0.0800
     43 H43       -12.8306    1.2380   51.0794 H       1  ZINC000058043838    0.0800
     44 H44       -12.6538   -1.0771   55.8713 H       1  ZINC000058043838    0.1500
     45 H45        -9.2493   -3.5175   61.3422 H       1  ZINC000058043838    0.1600
     46 H46        -8.8248   -1.6934   62.9372 H       1  ZINC000058043838    0.1600
     47 H47       -11.3754    0.8859   60.6920 H       1  ZINC000058043838    0.1600
     48 H48       -11.8071   -0.9250   59.0837 H       1  ZINC000058043838    0.1500
     49 H49        -9.0467   -4.6209   59.5228 H       1  ZINC000058043838    0.1800
@<TRIPOS>BOND
     1     1     2    1
     2     1    30    1
     3     1    31    1
     4     1    32    1
     5     2     3    1
     6     3     4    1
     7     3    33    1
     8     3    34    1
     9     4     5    1
    10     4    35    1
    11     4    36    1
    12     5     6   am
    13     5    16    1
    14     6     7    2
    15     6     8    1
    16     8     9    1
    17     8    37    1
    18     8    38    1
    19     9    15   ar
    20     9    10   ar
    21    10    11   ar
    22    10    39    1
    23    11    12   ar
    24    11    40    1
    25    12    13    1
    26    12    14   ar
    27    13    41    1
    28    13    42    1
    29    13    43    1
    30    14    15   ar
    31    15    44    1
    32    16    29    1
    33    16    17    2
    34    17    18    1
    35    18    19    1
    36    18    28    2
    37    19    27   ar
    38    19    20   ar
    39    20    21   ar
    40    20    45    1
    41    21    22   ar
    42    21    46    1
    43    22    23    1
    44    22    26   ar
    45    23    24    2
    46    23    25    2
    47    26    27   ar
    48    26    47    1
    49    27    48    1
    50    28    29    1
    51    28    49    1
@<TRIPOS>SUBSTRUCTURE
     1 ZINC000058043838        1 TEMP              0 ****  ****    0 ROOT


##########                                Name:    ZINC001207290212
##########                DOCK_Rotatable_Bonds:                   8
##########                         Heavy_Atoms:                  23
##########                    Molecular_Weight:             344.435
##########                DOCK_Rotatable_Bonds:                   8
##########                       Formal_Charge:               -0.03
##########                     HBond_Acceptors:                   9
##########                        HBond_Donors:                   2
##########                         Heavy_Atoms:                  23
##########                          Grid_Score:          -36.550850
##########                     Grid_vdw_energy:          -36.782463
##########                      Grid_es_energy:            0.231614
##########           Internal_energy_repulsive:            6.989676

@<TRIPOS>MOLECULE
ZINC001207290212
 47 48 1 0 0
SMALL
USER_CHARGES


@<TRIPOS>ATOM
      1 C1        -11.1564   -0.1537   62.7909 C.3     1  ZINC001207290212   -0.1500
      2 C2        -10.4152   -0.0751   61.4547 C.3     1  ZINC001207290212   -0.6300
      3 S3         -9.6843   -1.6907   61.0726 S.o2    1  ZINC001207290212    2.6100
      4 O4         -9.1326   -1.6913   59.7631 O.2     1  ZINC001207290212   -0.9500
      5 O5         -8.9396   -2.1759   62.1815 O.2     1  ZINC001207290212   -0.9500
      6 N6        -10.9800   -2.7167   60.9705 N.am    1  ZINC001207290212   -1.1100
      7 C7        -12.0308   -2.4732   59.9792 C.3     1  ZINC001207290212    0.0900
      8 C8        -11.8275   -3.3856   58.7971 C.2     1  ZINC001207290212    0.5100
      9 O9        -10.8139   -4.0458   58.7079 O.2     1  ZINC001207290212   -0.5300
     10 N10       -12.7718   -3.4680   57.8391 N.am    1  ZINC001207290212   -0.7200
     11 C11       -12.5749   -4.3563   56.6909 C.3     1  ZINC001207290212    0.1400
     12 H12       -11.9026   -5.1723   56.9556 H       1  ZINC001207290212    0.1000
     13 C13       -12.0119   -3.5668   55.4946 C.3     1  ZINC001207290212    0.0200
     14 N14       -13.0133   -3.6507   54.4094 N.3     1  ZINC001207290212   -0.5100
     15 C15       -12.3614   -3.6918   53.0936 C.3     1  ZINC001207290212    0.1300
     16 C16       -11.7734   -2.3398   52.7818 C.2     1  ZINC001207290212    0.0000
     17 C17       -12.4009   -1.3260   52.1630 C.2     1  ZINC001207290212   -0.0700
     18 O18       -11.5240   -0.3060   52.0840 O.3     1  ZINC001207290212   -0.2000
     19 C19       -10.3788   -0.7067   52.6522 C.2     1  ZINC001207290212    0.1900
     20 C20        -9.1270    0.1219   52.7830 C.3     1  ZINC001207290212   -0.0600
     21 N21       -10.5279   -1.9286   53.0784 N.2     1  ZINC001207290212   -0.4700
     22 C22       -13.7810   -4.8968   54.6624 C.3     1  ZINC001207290212    0.0400
     23 C23       -13.9323   -4.9152   56.2059 C.3     1  ZINC001207290212   -0.1000
     24 H24       -14.7499   -4.2669   56.5210 H       1  ZINC001207290212    0.0900
     25 C25       -14.1498   -6.3427   56.7116 C.3     1  ZINC001207290212   -0.1400
     26 H26       -11.9454   -0.9029   62.7251 H       1  ZINC001207290212    0.0700
     27 H27       -10.4565   -0.4313   63.5788 H       1  ZINC001207290212    0.0700
     28 H28       -11.5956    0.8171   63.0204 H       1  ZINC001207290212    0.0800
     29 H29       -11.1152    0.2026   60.6667 H       1  ZINC001207290212    0.1300
     30 H30        -9.6263    0.6743   61.5204 H       1  ZINC001207290212    0.1300
     31 H31       -11.0433   -3.4790   61.5671 H       1  ZINC001207290212    0.4300
     32 H32       -13.0051   -2.6699   60.4266 H       1  ZINC001207290212    0.1000
     33 H33       -11.9854   -1.4354   59.6490 H       1  ZINC001207290212    0.1100
     34 H34       -13.5818   -2.9390   57.9098 H       1  ZINC001207290212    0.4100
     35 H35       -11.8567   -2.5254   55.7769 H       1  ZINC001207290212    0.0800
     36 H36       -11.0713   -4.0095   55.1669 H       1  ZINC001207290212    0.0500
     37 H37       -11.5682   -4.4393   53.1043 H       1  ZINC001207290212    0.0600
     38 H38       -13.0964   -3.9528   52.3321 H       1  ZINC001207290212    0.1000
     39 H39       -13.4171   -1.3283   51.7971 H       1  ZINC001207290212    0.2100
     40 H40        -9.2940    1.1047   52.3420 H       1  ZINC001207290212    0.0900
     41 H41        -8.8746    0.2350   53.8374 H       1  ZINC001207290212    0.1000
     42 H42        -8.3067   -0.3745   52.2644 H       1  ZINC001207290212    0.1000
     43 H43       -14.7575   -4.8516   54.1803 H       1  ZINC001207290212    0.0900
     44 H44       -13.2225   -5.7686   54.3214 H       1  ZINC001207290212    0.0500
     45 H45       -13.3078   -6.9666   56.4119 H       1  ZINC001207290212    0.0600
     46 H46       -14.2276   -6.3351   57.7988 H       1  ZINC001207290212    0.0600
     47 H47       -15.0692   -6.7432   56.2844 H       1  ZINC001207290212    0.0600
@<TRIPOS>BOND
     1     1     2    1
     2     1    26    1
     3     1    27    1
     4     1    28    1
     5     2     3    1
     6     2    29    1
     7     2    30    1
     8     3     4    2
     9     3     5    2
    10     3     6   am
    11     6     7    1
    12     6    31    1
    13     7     8    1
    14     7    32    1
    15     7    33    1
    16     8     9    2
    17     8    10   am
    18    10    11    1
    19    10    34    1
    20    11    12    1
    21    11    23    1
    22    11    13    1
    23    13    14    1
    24    13    35    1
    25    13    36    1
    26    14    15    1
    27    14    22    1
    28    15    16    1
    29    15    37    1
    30    15    38    1
    31    16    21    1
    32    16    17    2
    33    17    18    1
    34    17    39    1
    35    18    19    1
    36    19    20    1
    37    19    21    2
    38    20    40    1
    39    20    41    1
    40    20    42    1
    41    22    23    1
    42    22    43    1
    43    22    44    1
    44    23    24    1
    45    23    25    1
    46    25    45    1
    47    25    46    1
    48    25    47    1
@<TRIPOS>SUBSTRUCTURE
     1 ZINC001207290212        1 TEMP              0 ****  ****    0 ROOT


##########                                Name:    ZINC000654382142
##########                DOCK_Rotatable_Bonds:                  14
##########                         Heavy_Atoms:                  24
##########                    Molecular_Weight:             379.401
##########                DOCK_Rotatable_Bonds:                  14
##########                       Formal_Charge:          0.00999933
##########                     HBond_Acceptors:                  12
##########                        HBond_Donors:                   2
##########                         Heavy_Atoms:                  24
##########                          Grid_Score:          -36.518520
##########                     Grid_vdw_energy:          -32.888443
##########                      Grid_es_energy:           -3.630078
##########           Internal_energy_repulsive:           17.921497

@<TRIPOS>MOLECULE
ZINC000654382142
 48 47 1 0 0
SMALL
USER_CHARGES


@<TRIPOS>ATOM
      1 C1        -12.7778    2.5893   61.1892 C.3     1  ZINC000654382142    0.0300
      2 O2        -12.9248    2.6609   62.6088 O.3     1  ZINC000654382142   -0.3700
      3 C3        -12.2611    1.6111   63.3155 C.3     1  ZINC000654382142    0.0400
      4 C4        -10.7956    1.9914   63.5355 C.3     1  ZINC000654382142    0.1400
      5 N5        -10.0635    0.8341   64.0559 N.am    1  ZINC000654382142   -0.6100
      6 C6         -9.6495    0.8005   65.4608 C.3     1  ZINC000654382142    0.0800
      7 C7         -8.1689    1.1719   65.5652 C.3     1  ZINC000654382142    0.0500
      8 H8         -7.7289    1.1949   64.5682 H       1  ZINC000654382142    0.1400
      9 O9         -7.4894    0.2007   66.3635 O.3     1  ZINC000654382142   -0.5200
     10 C10        -8.0334    2.5507   66.2145 C.3     1  ZINC000654382142    0.4200
     11 F11        -8.3268    2.4545   67.5790 F       1  ZINC000654382142   -0.1800
     12 F12        -6.7246    3.0168   66.0506 F       1  ZINC000654382142   -0.1700
     13 F13        -8.9251    3.4416   65.6074 F       1  ZINC000654382142   -0.1800
     14 C14        -9.7708   -0.1996   63.2423 C.2     1  ZINC000654382142    0.7100
     15 O15        -9.1644   -1.1608   63.6746 O.2     1  ZINC000654382142   -0.5600
     16 N16       -10.1502   -0.1680   61.9494 N.am    1  ZINC000654382142   -0.7500
     17 C17        -9.8305   -1.2910   61.0645 C.3     1  ZINC000654382142    0.1400
     18 C18       -10.5998   -1.1401   59.7507 C.3     1  ZINC000654382142   -0.1600
     19 C19        -9.8276   -1.8313   58.6252 C.3     1  ZINC000654382142    0.1200
     20 N20       -10.0401   -3.2787   58.7046 N.am    1  ZINC000654382142   -1.0000
     21 C21        -9.2709   -4.0807   59.6591 C.3     1  ZINC000654382142    0.0900
     22 S22       -11.1498   -4.0081   57.7152 S.o2    1  ZINC000654382142    2.6100
     23 C23       -12.7246   -3.2129   58.1377 C.3     1  ZINC000654382142   -0.6800
     24 O24       -10.7431   -3.6432   56.4035 O.2     1  ZINC000654382142   -0.9500
     25 O25       -11.1502   -5.3670   58.1308 O.2     1  ZINC000654382142   -0.9500
     26 H26       -13.3099    3.4205   60.7264 H       1  ZINC000654382142    0.0900
     27 H27       -11.7205    2.6456   60.9300 H       1  ZINC000654382142    0.0400
     28 H28       -13.1908    1.6474   60.8282 H       1  ZINC000654382142    0.0400
     29 H29       -12.7457    1.4593   64.2799 H       1  ZINC000654382142    0.0500
     30 H30       -12.3143    0.6911   62.7334 H       1  ZINC000654382142    0.0600
     31 H31       -10.3553    2.3041   62.5886 H       1  ZINC000654382142    0.0900
     32 H32       -10.7365    2.8109   64.2518 H       1  ZINC000654382142    0.1000
     33 H33       -10.2440    1.5135   66.0319 H       1  ZINC000654382142    0.1000
     34 H34        -9.8016   -0.2021   65.8605 H       1  ZINC000654382142    0.1000
     35 H35        -7.8482    0.1046   67.2562 H       1  ZINC000654382142    0.3900
     36 H36       -10.6350    0.5982   61.6049 H       1  ZINC000654382142    0.3900
     37 H37        -8.7599   -1.2989   60.8599 H       1  ZINC000654382142    0.0700
     38 H38       -10.1151   -2.2262   61.5469 H       1  ZINC000654382142    0.0700
     39 H39       -11.5836   -1.5984   59.8510 H       1  ZINC000654382142    0.0700
     40 H40       -10.7141   -0.0818   59.5161 H       1  ZINC000654382142    0.0800
     41 H41       -10.1825   -1.4642   57.6622 H       1  ZINC000654382142    0.0900
     42 H42        -8.7643   -1.6140   58.7274 H       1  ZINC000654382142    0.1000
     43 H43        -9.8088   -4.1337   60.6057 H       1  ZINC000654382142    0.0600
     44 H44        -9.1345   -5.0865   59.2618 H       1  ZINC000654382142    0.0700
     45 H45        -8.2969   -3.6186   59.8202 H       1  ZINC000654382142    0.0700
     46 H46       -12.6529   -2.1417   57.9487 H       1  ZINC000654382142    0.1300
     47 H47       -13.5213   -3.6371   57.5266 H       1  ZINC000654382142    0.1300
     48 H48       -12.9458   -3.3819   59.1916 H       1  ZINC000654382142    0.1300
@<TRIPOS>BOND
     1     1     2    1
     2     1    26    1
     3     1    27    1
     4     1    28    1
     5     2     3    1
     6     3     4    1
     7     3    29    1
     8     3    30    1
     9     4     5    1
    10     4    31    1
    11     4    32    1
    12     5     6    1
    13     5    14   am
    14     6     7    1
    15     6    33    1
    16     6    34    1
    17     7     8    1
    18     7     9    1
    19     7    10    1
    20     9    35    1
    21    10    11    1
    22    10    12    1
    23    10    13    1
    24    14    15    2
    25    14    16   am
    26    16    17    1
    27    16    36    1
    28    17    18    1
    29    17    37    1
    30    17    38    1
    31    18    19    1
    32    18    39    1
    33    18    40    1
    34    19    20    1
    35    19    41    1
    36    19    42    1
    37    20    21    1
    38    20    22   am
    39    21    43    1
    40    21    44    1
    41    21    45    1
    42    22    23    1
    43    22    24    2
    44    22    25    2
    45    23    46    1
    46    23    47    1
    47    23    48    1
@<TRIPOS>SUBSTRUCTURE
     1 ZINC000654382142        1 TEMP              0 ****  ****    0 ROOT


##########                                Name:    ZINC000074782190
##########                DOCK_Rotatable_Bonds:                   9
##########                         Heavy_Atoms:                  25
##########                    Molecular_Weight:             341.453
##########                DOCK_Rotatable_Bonds:                   9
##########                       Formal_Charge:          -0.0200006
##########                     HBond_Acceptors:                   5
##########                        HBond_Donors:                   1
##########                         Heavy_Atoms:                  25
##########                          Grid_Score:          -36.441051
##########                     Grid_vdw_energy:          -35.666218
##########                      Grid_es_energy:           -0.774835
##########           Internal_energy_repulsive:           25.532187

@<TRIPOS>MOLECULE
ZINC000074782190
 52 53 1 0 0
SMALL
USER_CHARGES


@<TRIPOS>ATOM
      1 C1        -11.0152   -0.0393   62.5793 C.3     1  ZINC000074782190   -0.1100
      2 C2        -12.2611   -0.7561   62.1266 C.ar    1  ZINC000074782190   -0.1200
      3 C3        -13.3982   -0.7276   62.9101 C.ar    1  ZINC000074782190   -0.0800
      4 C4        -14.5417   -1.3856   62.4955 C.ar    1  ZINC000074782190   -0.1500
      5 C5        -14.5499   -2.0730   61.2961 C.ar    1  ZINC000074782190   -0.0900
      6 C6        -13.4152   -2.1041   60.5085 C.ar    1  ZINC000074782190   -0.2100
      7 C7        -12.2686   -1.4405   60.9196 C.ar    1  ZINC000074782190    0.1300
      8 O8        -11.1511   -1.4697   60.1468 O.3     1  ZINC000074782190   -0.3000
      9 C9        -10.5113   -2.7364   59.9790 C.3     1  ZINC000074782190    0.0700
     10 H10       -11.2265   -3.5341   60.1796 H       1  ZINC000074782190    0.0800
     11 C11        -9.3367   -2.8476   60.9530 C.3     1  ZINC000074782190   -0.1800
     12 C12        -9.9971   -2.8618   58.5435 C.3     1  ZINC000074782190    0.1400
     13 N13       -11.1333   -2.9053   57.6197 N.am    1  ZINC000074782190   -0.7500
     14 C14       -11.7544   -4.0751   57.3700 C.2     1  ZINC000074782190    0.7100
     15 O15       -11.3717   -5.0943   57.9114 O.2     1  ZINC000074782190   -0.5900
     16 N16       -12.7996   -4.1152   56.5201 N.am    1  ZINC000074782190   -0.6200
     17 C17       -13.2608   -2.8872   55.8678 C.3     1  ZINC000074782190    0.1800
     18 C18       -12.6786   -2.8063   54.4802 C.ar    1  ZINC000074782190   -0.1600
     19 C19       -13.3498   -2.1263   53.4758 C.ar    1  ZINC000074782190   -0.0500
     20 C20       -12.7760   -2.0775   52.2143 C.ar    1  ZINC000074782190   -0.1800
     21 C21       -11.5627   -2.7038   52.0018 C.ar    1  ZINC000074782190    0.1000
     22 N22       -10.9522   -3.3418   52.9813 N.ar    1  ZINC000074782190   -0.4900
     23 C23       -11.4655   -3.4043   54.1941 C.ar    1  ZINC000074782190    0.1100
     24 C24       -13.4747   -5.3868   56.2487 C.3     1  ZINC000074782190    0.1300
     25 C25       -14.5931   -5.5988   57.2710 C.3     1  ZINC000074782190   -0.1800
     26 C26       -14.0705   -5.3573   54.8398 C.3     1  ZINC000074782190   -0.1800
     27 H27       -11.0299    0.9852   62.2074 H       1  ZINC000074782190    0.0700
     28 H28       -10.9769   -0.0299   63.6687 H       1  ZINC000074782190    0.0600
     29 H29       -10.1374   -0.5546   62.1894 H       1  ZINC000074782190    0.0700
     30 H30       -13.3942   -0.1912   63.8475 H       1  ZINC000074782190    0.1300
     31 H31       -15.4295   -1.3626   63.1099 H       1  ZINC000074782190    0.1200
     32 H32       -15.4441   -2.5863   60.9746 H       1  ZINC000074782190    0.1200
     33 H33       -13.4220   -2.6416   59.5718 H       1  ZINC000074782190    0.1300
     34 H34        -8.6215   -2.0499   60.7523 H       1  ZINC000074782190    0.0700
     35 H35        -9.7031   -2.7583   61.9757 H       1  ZINC000074782190    0.0700
     36 H36        -8.8488   -3.8138   60.8250 H       1  ZINC000074782190    0.0800
     37 H37        -9.3688   -2.0033   58.3063 H       1  ZINC000074782190    0.0800
     38 H38        -9.4136   -3.7773   58.4452 H       1  ZINC000074782190    0.0900
     39 H39       -11.4387   -2.0922   57.1878 H       1  ZINC000074782190    0.4100
     40 H40       -14.3489   -2.8955   55.8054 H       1  ZINC000074782190    0.0900
     41 H41       -12.9368   -2.0235   56.4485 H       1  ZINC000074782190    0.1000
     42 H42       -14.2974   -1.6463   53.6711 H       1  ZINC000074782190    0.1400
     43 H43       -13.2714   -1.5569   51.4081 H       1  ZINC000074782190    0.1300
     44 H44       -11.1094   -2.6707   51.0221 H       1  ZINC000074782190    0.1600
     45 H45       -10.9363   -3.9361   54.9711 H       1  ZINC000074782190    0.1500
     46 H46       -12.7558   -6.2027   56.3222 H       1  ZINC000074782190    0.1000
     47 H47       -15.3577   -4.8336   57.1370 H       1  ZINC000074782190    0.0600
     48 H48       -15.0359   -6.5842   57.1261 H       1  ZINC000074782190    0.0700
     49 H49       -14.1824   -5.5296   58.2784 H       1  ZINC000074782190    0.0600
     50 H50       -13.2656   -5.3222   54.1056 H       1  ZINC000074782190    0.0700
     51 H51       -14.6695   -6.2539   54.6798 H       1  ZINC000074782190    0.0700
     52 H52       -14.7010   -4.4748   54.7303 H       1  ZINC000074782190    0.0700
@<TRIPOS>BOND
     1     1     2    1
     2     1    27    1
     3     1    28    1
     4     1    29    1
     5     2     7   ar
     6     2     3   ar
     7     3     4   ar
     8     3    30    1
     9     4     5   ar
    10     4    31    1
    11     5     6   ar
    12     5    32    1
    13     6     7   ar
    14     6    33    1
    15     7     8    1
    16     8     9    1
    17     9    10    1
    18     9    11    1
    19     9    12    1
    20    11    34    1
    21    11    35    1
    22    11    36    1
    23    12    13    1
    24    12    37    1
    25    12    38    1
    26    13    14   am
    27    13    39    1
    28    14    15    2
    29    14    16   am
    30    16    17    1
    31    16    24    1
    32    17    18    1
    33    17    40    1
    34    17    41    1
    35    18    23   ar
    36    18    19   ar
    37    19    20   ar
    38    19    42    1
    39    20    21   ar
    40    20    43    1
    41    21    22   ar
    42    21    44    1
    43    22    23   ar
    44    23    45    1
    45    24    25    1
    46    24    26    1
    47    24    46    1
    48    25    47    1
    49    25    48    1
    50    25    49    1
    51    26    50    1
    52    26    51    1
    53    26    52    1
@<TRIPOS>SUBSTRUCTURE
     1 ZINC000074782190        1 TEMP              0 ****  ****    0 ROOT


##########                                Name:    ZINC000461678839
##########                DOCK_Rotatable_Bonds:                   6
##########                         Heavy_Atoms:                  28
##########                    Molecular_Weight:             404.939
##########                DOCK_Rotatable_Bonds:                   6
##########                       Formal_Charge:          -0.0200003
##########                     HBond_Acceptors:                   7
##########                        HBond_Donors:                   0
##########                         Heavy_Atoms:                  28
##########                          Grid_Score:          -36.437786
##########                     Grid_vdw_energy:          -35.915905
##########                      Grid_es_energy:           -0.521881
##########           Internal_energy_repulsive:           12.450522

@<TRIPOS>MOLECULE
ZINC000461678839
 57 60 1 0 0
SMALL
USER_CHARGES


@<TRIPOS>ATOM
      1 C1        -15.4940   -2.5336   52.8341 C.3     1  ZINC000461678839   -0.1500
      2 C2        -14.5457   -3.5194   53.5197 C.3     1  ZINC000461678839   -0.0900
      3 H3        -14.0443   -4.1176   52.7589 H       1  ZINC000461678839    0.0700
      4 C4        -15.3668   -4.4543   54.4359 C.3     1  ZINC000461678839   -0.1100
      5 C5        -14.5386   -5.6691   54.7593 C.3     1  ZINC000461678839   -0.1200
      6 C6        -13.7191   -5.5096   56.0524 C.3     1  ZINC000461678839    0.0600
      7 N7        -13.0869   -4.1786   56.1851 N.3     1  ZINC000461678839   -0.4600
      8 C8        -12.1525   -4.1724   57.2086 C.2     1  ZINC000461678839    0.3700
      9 N9        -11.0997   -4.9492   57.3082 N.2     1  ZINC000461678839   -0.3100
     10 N10       -10.4524   -4.6714   58.3833 N.2     1  ZINC000461678839   -0.2500
     11 C11       -11.0489   -3.7091   59.0280 C.2     1  ZINC000461678839    0.1700
     12 C12       -10.6038   -3.0968   60.3312 C.3     1  ZINC000461678839    0.1500
     13 O13       -10.5159   -1.6780   60.1853 O.3     1  ZINC000461678839   -0.3100
     14 C14       -10.2141   -0.9607   61.2997 C.ar    1  ZINC000461678839    0.1400
     15 C15        -9.6327   -1.5870   62.3924 C.ar    1  ZINC000461678839   -0.2000
     16 C16        -9.3267   -0.8563   63.5242 C.ar    1  ZINC000461678839   -0.0700
     17 C17        -9.6002    0.4993   63.5684 C.ar    1  ZINC000461678839   -0.0700
     18 Cl18       -9.2153    1.4154   64.9919 Cl      1  ZINC000461678839   -0.0700
     19 C19       -10.1796    1.1259   62.4793 C.ar    1  ZINC000461678839   -0.0700
     20 C20       -10.4818    0.3998   61.3437 C.ar    1  ZINC000461678839   -0.1400
     21 N21       -12.1504   -3.3534   58.2999 N.pl3   1  ZINC000461678839   -0.4600
     22 C22       -13.1297   -2.3144   58.6280 C.3     1  ZINC000461678839    0.1200
     23 C23       -14.4148   -2.9682   59.1397 C.3     1  ZINC000461678839   -0.1400
     24 H24       -14.3759   -4.0480   58.9956 H       1  ZINC000461678839    0.0900
     25 C25       -15.6496   -2.3701   58.4227 C.3     1  ZINC000461678839   -0.1500
     26 C26       -16.6712   -2.2492   59.5821 C.3     1  ZINC000461678839    0.0500
     27 O27       -15.8561   -1.8672   60.7109 O.3     1  ZINC000461678839   -0.3700
     28 C28       -14.6370   -2.6300   60.6266 C.3     1  ZINC000461678839    0.0400
     29 C29       -12.5118   -3.6859   54.9567 C.3     1  ZINC000461678839    0.0700
     30 C30       -13.5451   -2.7717   54.2730 C.3     1  ZINC000461678839   -0.1100
     31 H31       -14.9241   -1.8824   52.1714 H       1  ZINC000461678839    0.0500
     32 H32       -16.2338   -3.0849   52.2537 H       1  ZINC000461678839    0.0500
     33 H33       -15.9996   -1.9312   53.5889 H       1  ZINC000461678839    0.0600
     34 H34       -15.6221   -3.9306   55.3572 H       1  ZINC000461678839    0.0700
     35 H35       -16.2785   -4.7600   53.9229 H       1  ZINC000461678839    0.0700
     36 H36       -15.2017   -6.5274   54.8675 H       1  ZINC000461678839    0.0800
     37 H37       -13.8551   -5.8585   53.9316 H       1  ZINC000461678839    0.0700
     38 H38       -14.3778   -5.6704   56.9059 H       1  ZINC000461678839    0.0700
     39 H39       -12.9388   -6.2704   56.0680 H       1  ZINC000461678839    0.0500
     40 H40       -11.3259   -3.3378   61.1112 H       1  ZINC000461678839    0.0800
     41 H41        -9.6268   -3.4952   60.6047 H       1  ZINC000461678839    0.1000
     42 H42        -9.4197   -2.6452   62.3586 H       1  ZINC000461678839    0.1400
     43 H43        -8.8741   -1.3435   64.3752 H       1  ZINC000461678839    0.1400
     44 H44       -10.3920    2.1842   62.5155 H       1  ZINC000461678839    0.1400
     45 H45       -10.9341    0.8892   60.4937 H       1  ZINC000461678839    0.1400
     46 H46       -12.7220   -1.6614   59.3998 H       1  ZINC000461678839    0.1100
     47 H47       -13.3504   -1.7285   57.7358 H       1  ZINC000461678839    0.1000
     48 H48       -15.4195   -1.3907   58.0034 H       1  ZINC000461678839    0.0800
     49 H49       -16.0163   -3.0461   57.6503 H       1  ZINC000461678839    0.0900
     50 H50       -17.4101   -1.4780   59.3638 H       1  ZINC000461678839    0.1000
     51 H51       -17.1577   -3.2070   59.7666 H       1  ZINC000461678839    0.0600
     52 H52       -14.7326   -3.5470   61.2080 H       1  ZINC000461678839    0.0500
     53 H53       -13.8022   -2.0371   61.0003 H       1  ZINC000461678839    0.1100
     54 H54       -11.6072   -3.1187   55.1762 H       1  ZINC000461678839    0.0900
     55 H55       -12.2710   -4.5234   54.3020 H       1  ZINC000461678839    0.0600
     56 H56       -13.0239   -2.0989   53.5920 H       1  ZINC000461678839    0.0700
     57 H57       -14.0482   -2.1770   55.0355 H       1  ZINC000461678839    0.0700
@<TRIPOS>BOND
     1     1     2    1
     2     1    31    1
     3     1    32    1
     4     1    33    1
     5     2     3    1
     6     2    30    1
     7     2     4    1
     8     4     5    1
     9     4    34    1
    10     4    35    1
    11     5     6    1
    12     5    36    1
    13     5    37    1
    14     6     7    1
    15     6    38    1
    16     6    39    1
    17     7     8    1
    18     7    29    1
    19     8    21    1
    20     8     9    2
    21     9    10    1
    22    10    11    2
    23    11    12    1
    24    11    21    1
    25    12    13    1
    26    12    40    1
    27    12    41    1
    28    13    14    1
    29    14    20   ar
    30    14    15   ar
    31    15    16   ar
    32    15    42    1
    33    16    17   ar
    34    16    43    1
    35    17    18    1
    36    17    19   ar
    37    19    20   ar
    38    19    44    1
    39    20    45    1
    40    21    22    1
    41    22    23    1
    42    22    46    1
    43    22    47    1
    44    23    24    1
    45    23    28    1
    46    23    25    1
    47    25    26    1
    48    25    48    1
    49    25    49    1
    50    26    27    1
    51    26    50    1
    52    26    51    1
    53    27    28    1
    54    28    52    1
    55    28    53    1
    56    29    30    1
    57    29    54    1
    58    29    55    1
    59    30    56    1
    60    30    57    1
@<TRIPOS>SUBSTRUCTURE
     1 ZINC000461678839        1 TEMP              0 ****  ****    0 ROOT


##########                                Name:    ZINC000481838178
##########                DOCK_Rotatable_Bonds:                   6
##########                         Heavy_Atoms:                  29
##########                    Molecular_Weight:             408.524
##########                DOCK_Rotatable_Bonds:                   6
##########                       Formal_Charge:         -0.00999962
##########                     HBond_Acceptors:                   7
##########                        HBond_Donors:                   0
##########                         Heavy_Atoms:                  29
##########                          Grid_Score:          -36.424706
##########                     Grid_vdw_energy:          -36.448597
##########                      Grid_es_energy:            0.023893
##########           Internal_energy_repulsive:            8.817896

@<TRIPOS>MOLECULE
ZINC000481838178
 53 57 1 0 0
SMALL
USER_CHARGES


@<TRIPOS>ATOM
      1 O1         -3.5713    3.0751   50.9226 O.2     1  ZINC000481838178   -0.5200
      2 C2         -3.8733    2.3782   49.9770 C.2     1  ZINC000481838178    0.5500
      3 C3         -4.9161    1.3021   50.1367 C.3     1  ZINC000481838178   -0.1500
      4 S4         -6.2033    1.8733   51.2737 S.3     1  ZINC000481838178    0.1000
      5 C5         -7.2021    0.4243   51.3581 C.2     1  ZINC000481838178    0.1600
      6 N6         -6.8950   -0.7626   50.8850 N.2     1  ZINC000481838178   -0.2800
      7 N7         -7.8478   -1.5930   51.1167 N.2     1  ZINC000481838178   -0.2500
      8 C8         -8.8265   -0.9884   51.7544 C.2     1  ZINC000481838178    0.2700
      9 C9        -10.0902   -1.5971   52.1969 C.2     1  ZINC000481838178    0.0300
     10 C10       -10.5690   -1.6094   53.4729 C.2     1  ZINC000481838178   -0.1300
     11 C11       -11.7992   -2.2938   53.4375 C.2     1  ZINC000481838178   -0.2100
     12 C12       -12.0107   -2.6620   52.1582 C.2     1  ZINC000481838178   -0.0100
     13 O13       -10.9797   -2.2348   51.4104 O.3     1  ZINC000481838178   -0.1700
     14 N14        -8.4401    0.3236   51.9343 N.pl3   1  ZINC000481838178   -0.4100
     15 C15        -9.1663    1.3422   52.5666 C.ar    1  ZINC000481838178    0.1000
     16 C16        -8.5302    2.2056   53.4483 C.ar    1  ZINC000481838178   -0.0800
     17 C17        -9.2486    3.2083   54.0699 C.ar    1  ZINC000481838178   -0.1100
     18 C18       -10.5999    3.3527   53.8147 C.ar    1  ZINC000481838178   -0.1000
     19 C19       -11.2362    2.4943   52.9369 C.ar    1  ZINC000481838178   -0.1100
     20 C20       -10.5220    1.4933   52.3079 C.ar    1  ZINC000481838178   -0.0900
     21 N21        -3.2803    2.5698   48.7820 N.am    1  ZINC000481838178   -0.6200
     22 C22        -2.2353    3.5844   48.4801 C.3     1  ZINC000481838178    0.1000
     23 C23        -1.4874    2.9718   47.2901 C.3     1  ZINC000481838178   -0.1100
     24 H24        -0.8457    2.1516   47.6121 H       1  ZINC000481838178    0.0900
     25 C25        -0.7253    3.9410   46.4062 C.3     1  ZINC000481838178   -0.1100
     26 C26        -0.1611    3.1300   45.2277 C.3     1  ZINC000481838178   -0.1200
     27 C27        -1.2661    2.4179   44.4541 C.3     1  ZINC000481838178   -0.1200
     28 C28        -2.1368    1.5507   45.3792 C.3     1  ZINC000481838178   -0.1000
     29 C29        -2.6968    2.4481   46.4584 C.3     1  ZINC000481838178   -0.1100
     30 H30        -3.2129    3.2959   46.0077 H       1  ZINC000481838178    0.0900
     31 C31        -3.5531    1.8005   47.5424 C.3     1  ZINC000481838178    0.1200
     32 H32        -5.3608    1.0801   49.1665 H       1  ZINC000481838178    0.1300
     33 H33        -4.4508    0.4017   50.5376 H       1  ZINC000481838178    0.1300
     34 H34       -10.0961   -1.1782   54.3429 H       1  ZINC000481838178    0.1600
     35 H35       -12.4503   -2.4873   54.2770 H       1  ZINC000481838178    0.1600
     36 H36       -12.8693   -3.2066   51.7938 H       1  ZINC000481838178    0.2100
     37 H37        -7.4749    2.0931   53.6483 H       1  ZINC000481838178    0.1300
     38 H38        -8.7544    3.8801   54.7561 H       1  ZINC000481838178    0.1400
     39 H39       -11.1596    4.1373   54.3021 H       1  ZINC000481838178    0.1300
     40 H40       -12.2919    2.6093   52.7399 H       1  ZINC000481838178    0.1400
     41 H41       -11.0195    0.8232   51.6225 H       1  ZINC000481838178    0.1300
     42 H42        -2.6906    4.5346   48.2007 H       1  ZINC000481838178    0.0800
     43 H43        -1.5659    3.7124   49.3308 H       1  ZINC000481838178    0.0800
     44 H44        -1.3983    4.7147   46.0365 H       1  ZINC000481838178    0.0700
     45 H45         0.0904    4.3948   46.9693 H       1  ZINC000481838178    0.0700
     46 H46         0.3680    3.8035   44.5534 H       1  ZINC000481838178    0.0600
     47 H47         0.5402    2.3882   45.6099 H       1  ZINC000481838178    0.0600
     48 H48        -1.8962    3.1624   43.9673 H       1  ZINC000481838178    0.0600
     49 H49        -0.8145    1.7827   43.6920 H       1  ZINC000481838178    0.0700
     50 H50        -2.9508    1.1018   44.8101 H       1  ZINC000481838178    0.0700
     51 H51        -1.5289    0.7710   45.8381 H       1  ZINC000481838178    0.0700
     52 H52        -3.2754    0.7539   47.6663 H       1  ZINC000481838178    0.0700
     53 H53        -4.6095    1.8827   47.2868 H       1  ZINC000481838178    0.0700
@<TRIPOS>BOND
     1     1     2    2
     2     2     3    1
     3     2    21   am
     4     3     4    1
     5     3    32    1
     6     3    33    1
     7     4     5    1
     8     5    14    1
     9     5     6    2
    10     6     7    1
    11     7     8    2
    12     8     9    1
    13     8    14    1
    14     9    13    1
    15     9    10    2
    16    10    11    1
    17    10    34    1
    18    11    12    2
    19    11    35    1
    20    12    13    1
    21    12    36    1
    22    14    15    1
    23    15    20   ar
    24    15    16   ar
    25    16    17   ar
    26    16    37    1
    27    17    18   ar
    28    17    38    1
    29    18    19   ar
    30    18    39    1
    31    19    20   ar
    32    19    40    1
    33    20    41    1
    34    21    31    1
    35    21    22    1
    36    22    23    1
    37    22    42    1
    38    22    43    1
    39    23    24    1
    40    23    29    1
    41    23    25    1
    42    25    26    1
    43    25    44    1
    44    25    45    1
    45    26    27    1
    46    26    46    1
    47    26    47    1
    48    27    28    1
    49    27    48    1
    50    27    49    1
    51    28    29    1
    52    28    50    1
    53    28    51    1
    54    29    30    1
    55    29    31    1
    56    31    52    1
    57    31    53    1
@<TRIPOS>SUBSTRUCTURE
     1 ZINC000481838178        1 TEMP              0 ****  ****    0 ROOT


##########                                Name:    ZINC000642096826
##########                DOCK_Rotatable_Bonds:                  12
##########                         Heavy_Atoms:                  25
##########                    Molecular_Weight:             345.485
##########                DOCK_Rotatable_Bonds:                  12
##########                       Formal_Charge:          0.00999919
##########                     HBond_Acceptors:                   5
##########                        HBond_Donors:                   1
##########                         Heavy_Atoms:                  25
##########                          Grid_Score:          -36.398441
##########                     Grid_vdw_energy:          -34.839653
##########                      Grid_es_energy:           -1.558787
##########           Internal_energy_repulsive:           21.409361

@<TRIPOS>MOLECULE
ZINC000642096826
 56 57 1 0 0
SMALL
USER_CHARGES


@<TRIPOS>ATOM
      1 C1        -16.3212   -3.6661   53.1380 C.3     1  ZINC000642096826   -0.1500
      2 C2        -15.8883   -3.3452   54.5701 C.3     1  ZINC000642096826   -0.1400
      3 C3        -14.9094   -4.4147   55.0587 C.3     1  ZINC000642096826    0.1200
      4 N4        -13.5715   -3.8313   55.1842 N.am    1  ZINC000642096826   -0.6200
      5 C5        -12.5111   -4.2232   54.2524 C.3     1  ZINC000642096826    0.1100
      6 C6        -12.2960   -3.1087   53.2265 C.3     1  ZINC000642096826   -0.1400
      7 C7        -11.2073   -3.5293   52.2372 C.3     1  ZINC000642096826   -0.1500
      8 C8        -13.3162   -2.9339   56.1568 C.2     1  ZINC000642096826    0.5200
      9 O9        -14.1936   -2.6106   56.9291 O.2     1  ZINC000642096826   -0.5200
     10 C10       -11.9403   -2.3324   56.2848 C.3     1  ZINC000642096826    0.0400
     11 N11       -11.5440   -2.3130   57.6992 N.3     1  ZINC000642096826   -0.5200
     12 C12       -11.3777   -3.6773   58.2180 C.3     1  ZINC000642096826    0.0100
     13 C13       -10.3203   -1.5236   57.8923 C.3     1  ZINC000642096826    0.0900
     14 C14       -10.2000   -1.1300   59.3420 C.ar    1  ZINC000642096826   -0.0500
     15 C15        -9.4940   -1.9353   60.2180 C.ar    1  ZINC000642096826   -0.1000
     16 C16        -9.3805   -1.5811   61.5465 C.ar    1  ZINC000642096826   -0.0600
     17 C17        -9.9795   -0.4071   62.0061 C.ar    1  ZINC000642096826   -0.1400
     18 C18        -9.8615   -0.0210   63.4283 C.2     1  ZINC000642096826    0.5600
     19 O19       -10.8577    0.2537   64.0682 O.2     1  ZINC000642096826   -0.5300
     20 N20        -8.6492    0.0263   64.0154 N.am    1  ZINC000642096826   -0.7000
     21 C21        -8.5321    0.4105   65.4243 C.3     1  ZINC000642096826    0.0800
     22 C22        -7.3929    1.3578   65.8060 C.3     1  ZINC000642096826   -0.1900
     23 C23        -8.8361    1.8654   65.7874 C.3     1  ZINC000642096826   -0.1900
     24 C24       -10.6899    0.4010   61.1171 C.ar    1  ZINC000642096826   -0.0900
     25 C25       -10.7913    0.0378   59.7900 C.ar    1  ZINC000642096826   -0.1200
     26 H26       -15.4459   -3.6813   52.4886 H       1  ZINC000642096826    0.0600
     27 H27       -16.8075   -4.6412   53.1154 H       1  ZINC000642096826    0.0600
     28 H28       -17.0186   -2.9041   52.7900 H       1  ZINC000642096826    0.0600
     29 H29       -15.4020   -2.3699   54.5927 H       1  ZINC000642096826    0.0600
     30 H30       -16.7636   -3.3299   55.2194 H       1  ZINC000642096826    0.0600
     31 H31       -15.2351   -4.7892   56.0291 H       1  ZINC000642096826    0.0800
     32 H32       -14.8818   -5.2362   54.3428 H       1  ZINC000642096826    0.0800
     33 H33       -11.5865   -4.3923   54.8045 H       1  ZINC000642096826    0.0800
     34 H34       -12.7999   -5.1398   53.7381 H       1  ZINC000642096826    0.0800
     35 H35       -13.2258   -2.9266   52.6876 H       1  ZINC000642096826    0.0700
     36 H36       -11.9887   -2.1972   53.7391 H       1  ZINC000642096826    0.0700
     37 H37       -11.0541   -2.7353   51.5064 H       1  ZINC000642096826    0.0600
     38 H38       -10.2774   -3.7114   52.7762 H       1  ZINC000642096826    0.0600
     39 H39       -11.5147   -4.4408   51.7246 H       1  ZINC000642096826    0.0600
     40 H40       -11.2281   -2.9301   55.7161 H       1  ZINC000642096826    0.0600
     41 H41       -11.9516   -1.3139   55.8967 H       1  ZINC000642096826    0.1000
     42 H42       -10.6059   -4.1920   57.6458 H       1  ZINC000642096826    0.0200
     43 H43       -11.0844   -3.6339   59.2668 H       1  ZINC000642096826    0.0700
     44 H44       -12.3196   -4.2182   58.1264 H       1  ZINC000642096826    0.0900
     45 H45        -9.4543   -2.1196   57.6046 H       1  ZINC000642096826    0.0500
     46 H46       -10.3654   -0.6265   57.2748 H       1  ZINC000642096826    0.0900
     47 H47        -9.0311   -2.8435   59.8612 H       1  ZINC000642096826    0.1300
     48 H48        -8.8298   -2.2109   62.2295 H       1  ZINC000642096826    0.1400
     49 H49        -7.8543   -0.1941   63.5051 H       1  ZINC000642096826    0.4000
     50 H50        -8.8118   -0.3572   66.1458 H       1  ZINC000642096826    0.1400
     51 H51        -6.9226    1.2133   66.7786 H       1  ZINC000642096826    0.1000
     52 H52        -6.7304    1.6952   65.0088 H       1  ZINC000642096826    0.1000
     53 H53        -9.1231    2.5368   64.9780 H       1  ZINC000642096826    0.1000
     54 H54        -9.3153    2.0549   66.7479 H       1  ZINC000642096826    0.1100
     55 H55       -11.1559    1.3105   61.4665 H       1  ZINC000642096826    0.1200
     56 H56       -11.3404    0.6625   59.1009 H       1  ZINC000642096826    0.1300
@<TRIPOS>BOND
     1     1     2    1
     2     1    26    1
     3     1    27    1
     4     1    28    1
     5     2     3    1
     6     2    29    1
     7     2    30    1
     8     3     4    1
     9     3    31    1
    10     3    32    1
    11     4     5    1
    12     4     8   am
    13     5     6    1
    14     5    33    1
    15     5    34    1
    16     6     7    1
    17     6    35    1
    18     6    36    1
    19     7    37    1
    20     7    38    1
    21     7    39    1
    22     8     9    2
    23     8    10    1
    24    10    11    1
    25    10    40    1
    26    10    41    1
    27    11    12    1
    28    11    13    1
    29    12    42    1
    30    12    43    1
    31    12    44    1
    32    13    14    1
    33    13    45    1
    34    13    46    1
    35    14    25   ar
    36    14    15   ar
    37    15    16   ar
    38    15    47    1
    39    16    17   ar
    40    16    48    1
    41    17    18    1
    42    17    24   ar
    43    18    19    2
    44    18    20   am
    45    20    21    1
    46    20    49    1
    47    21    23    1
    48    21    22    1
    49    21    50    1
    50    22    23    1
    51    22    51    1
    52    22    52    1
    53    23    53    1
    54    23    54    1
    55    24    25   ar
    56    24    55    1
    57    25    56    1
@<TRIPOS>SUBSTRUCTURE
     1 ZINC000642096826        1 TEMP              0 ****  ****    0 ROOT


##########                                Name:    ZINC000766421809
##########                DOCK_Rotatable_Bonds:                   7
##########                         Heavy_Atoms:                  26
##########                    Molecular_Weight:             358.372
##########                DOCK_Rotatable_Bonds:                   7
##########                       Formal_Charge:         4.61936e-07
##########                     HBond_Acceptors:                   8
##########                        HBond_Donors:                   0
##########                         Heavy_Atoms:                  26
##########                          Grid_Score:          -36.388386
##########                     Grid_vdw_energy:          -36.715855
##########                      Grid_es_energy:            0.327470
##########           Internal_energy_repulsive:            6.439827

@<TRIPOS>MOLECULE
ZINC000766421809
 45 47 1 0 0
SMALL
USER_CHARGES


@<TRIPOS>ATOM
      1 C1        -14.4597   -1.0442   50.2015 C.3     1  ZINC000766421809   -0.0700
      2 C2        -13.8051   -1.9466   51.2156 C.2     1  ZINC000766421809    0.0700
      3 N3        -12.5191   -2.0515   51.4322 N.2     1  ZINC000766421809   -0.2900
      4 N4        -12.3222   -2.9927   52.4508 N.pl3   1  ZINC000766421809   -0.3700
      5 C5        -11.0300   -3.4100   53.0007 C.3     1  ZINC000766421809    0.1000
      6 C6        -13.5330   -3.4473   52.8362 C.2     1  ZINC000766421809    0.0700
      7 C7        -13.7972   -4.4734   53.9076 C.3     1  ZINC000766421809    0.1400
      8 O8        -12.9827   -4.1774   55.0726 O.3     1  ZINC000766421809   -0.3400
      9 C9        -13.2954   -4.8138   56.2124 C.2     1  ZINC000766421809    0.4700
     10 O10       -14.2606   -5.5394   56.2540 O.2     1  ZINC000766421809   -0.5000
     11 C11       -12.4425   -4.6232   57.4401 C.3     1  ZINC000766421809   -0.1100
     12 C12       -11.4526   -3.4812   57.2011 C.3     1  ZINC000766421809   -0.0200
     13 C13       -10.8171   -3.0853   58.5089 C.2     1  ZINC000766421809    0.1900
     14 N14       -11.1106   -2.0312   59.2287 N.2     1  ZINC000766421809   -0.4700
     15 C15       -10.2937   -2.0873   60.3049 C.2     1  ZINC000766421809    0.2200
     16 C16       -10.2407   -1.1127   61.4225 C.ar    1  ZINC000766421809   -0.0300
     17 C17        -9.4953   -1.3990   62.5644 C.ar    1  ZINC000766421809   -0.0500
     18 C18        -9.4484   -0.4898   63.6012 C.ar    1  ZINC000766421809   -0.1500
     19 C19       -10.1414    0.7063   63.5080 C.ar    1  ZINC000766421809    0.1200
     20 F20       -10.0931    1.5937   64.5257 F       1  ZINC000766421809   -0.1300
     21 C21       -10.8836    0.9952   62.3740 C.ar    1  ZINC000766421809   -0.1200
     22 C22       -11.6346    2.2982   62.2780 C.3     1  ZINC000766421809   -0.1200
     23 C23       -10.9317    0.0941   61.3306 C.ar    1  ZINC000766421809   -0.0600
     24 N24        -9.5594   -3.1619   60.1764 N.2     1  ZINC000766421809   -0.3700
     25 O25        -9.8520   -3.7470   59.1551 O.3     1  ZINC000766421809    0.0900
     26 C26       -14.4679   -2.8123   52.0918 C.2     1  ZINC000766421809   -0.2400
     27 H27       -14.6699   -0.0769   50.6581 H       1  ZINC000766421809    0.0800
     28 H28       -13.7910   -0.9071   49.3518 H       1  ZINC000766421809    0.0700
     29 H29       -15.3917   -1.4956   49.8614 H       1  ZINC000766421809    0.0800
     30 H30       -10.7666   -2.7652   53.8391 H       1  ZINC000766421809    0.0800
     31 H31       -11.0975   -4.4426   53.3436 H       1  ZINC000766421809    0.0900
     32 H32       -10.2646   -3.3329   52.2285 H       1  ZINC000766421809    0.0900
     33 H33       -14.8510   -4.4464   54.1847 H       1  ZINC000766421809    0.0900
     34 H34       -13.5459   -5.4649   53.5310 H       1  ZINC000766421809    0.0900
     35 H35       -13.0791   -4.3801   58.2908 H       1  ZINC000766421809    0.1200
     36 H36       -11.8939   -5.5420   57.6476 H       1  ZINC000766421809    0.1200
     37 H37       -10.6798   -3.8098   56.5063 H       1  ZINC000766421809    0.1200
     38 H38       -11.9800   -2.6255   56.7796 H       1  ZINC000766421809    0.1200
     39 H39        -8.9553   -2.3315   62.6380 H       1  ZINC000766421809    0.1500
     40 H40        -8.8709   -0.7109   64.4866 H       1  ZINC000766421809    0.1500
     41 H41       -10.9922    3.0556   61.8288 H       1  ZINC000766421809    0.0800
     42 H42       -12.5220    2.1616   61.6599 H       1  ZINC000766421809    0.0800
     43 H43       -11.9328    2.6200   63.2758 H       1  ZINC000766421809    0.0700
     44 H44       -11.5104    0.3201   60.4472 H       1  ZINC000766421809    0.1400
     45 H45       -15.5365   -2.9537   52.1582 H       1  ZINC000766421809    0.1500
@<TRIPOS>BOND
     1     1     2    1
     2     1    27    1
     3     1    28    1
     4     1    29    1
     5     2    26    1
     6     2     3    2
     7     3     4    1
     8     4     5    1
     9     4     6    1
    10     5    30    1
    11     5    31    1
    12     5    32    1
    13     6     7    1
    14     6    26    2
    15     7     8    1
    16     7    33    1
    17     7    34    1
    18     8     9    1
    19     9    10    2
    20     9    11    1
    21    11    12    1
    22    11    35    1
    23    11    36    1
    24    12    13    1
    25    12    37    1
    26    12    38    1
    27    13    25    1
    28    13    14    2
    29    14    15    1
    30    15    16    1
    31    15    24    2
    32    16    23   ar
    33    16    17   ar
    34    17    18   ar
    35    17    39    1
    36    18    19   ar
    37    18    40    1
    38    19    20    1
    39    19    21   ar
    40    21    22    1
    41    21    23   ar
    42    22    41    1
    43    22    42    1
    44    22    43    1
    45    23    44    1
    46    24    25    1
    47    26    45    1
@<TRIPOS>SUBSTRUCTURE
     1 ZINC000766421809        1 TEMP              0 ****  ****    0 ROOT


##########                                Name:    ZINC001067316277
##########                DOCK_Rotatable_Bonds:                   5
##########                         Heavy_Atoms:                  24
##########                    Molecular_Weight:             345.469
##########                DOCK_Rotatable_Bonds:                   5
##########                       Formal_Charge:          -0.0200007
##########                     HBond_Acceptors:                   7
##########                        HBond_Donors:                   2
##########                         Heavy_Atoms:                  24
##########                          Grid_Score:          -36.342896
##########                     Grid_vdw_energy:          -35.246902
##########                      Grid_es_energy:           -1.095994
##########           Internal_energy_repulsive:            9.105100

@<TRIPOS>MOLECULE
ZINC001067316277
 47 49 1 0 0
SMALL
USER_CHARGES


@<TRIPOS>ATOM
      1 C1         -6.6530    0.5770   50.2651 C.3     1  ZINC001067316277   -0.1400
      2 S2         -6.4659    1.6353   51.7215 S.3     1  ZINC001067316277   -0.0400
      3 C3         -4.9470    2.4354   51.3253 C.ar    1  ZINC001067316277    0.1800
      4 C4         -4.4293    3.4277   52.1614 C.ar    1  ZINC001067316277   -0.2400
      5 C5         -3.2358    4.0276   51.8112 C.ar    1  ZINC001067316277    0.1900
      6 N6         -2.6205    3.6478   50.7007 N.ar    1  ZINC001067316277   -0.5600
      7 C7         -3.1342    2.7035   49.9258 C.ar    1  ZINC001067316277    0.5100
      8 N8         -2.4607    2.3351   48.7743 N.3     1  ZINC001067316277   -0.4600
      9 C9         -2.9848    1.0719   48.2395 C.3     1  ZINC001067316277    0.0700
     10 C10        -2.1255    0.6221   47.0557 C.3     1  ZINC001067316277   -0.1300
     11 C11        -2.1490    1.7051   45.9735 C.3     1  ZINC001067316277    0.1600
     12 H12        -3.1688    1.8362   45.6117 H       1  ZINC001067316277    0.0900
     13 N13        -1.2827    1.3053   44.8618 N.am    1  ZINC001067316277   -0.7200
     14 C14        -1.7203    0.4095   43.9549 C.2     1  ZINC001067316277    0.5900
     15 O15        -2.8346   -0.0683   44.0602 O.2     1  ZINC001067316277   -0.5300
     16 C16        -0.8536    0.0106   42.8409 C.2     1  ZINC001067316277   -0.0600
     17 C17         0.4196    0.4770   42.5914 C.2     1  ZINC001067316277   -0.1000
     18 C18         0.8738   -0.1665   41.4360 C.2     1  ZINC001067316277   -0.2100
     19 C19        -0.1080   -0.9964   41.0093 C.2     1  ZINC001067316277    0.0300
     20 N20        -1.1610   -0.9022   41.8574 N.pl3   1  ZINC001067316277   -0.5400
     21 C21        -1.6441    3.0221   46.5694 C.3     1  ZINC001067316277   -0.0700
     22 C22        -0.1942    2.8528   47.0276 C.3     1  ZINC001067316277   -0.1400
     23 C23        -1.7200    4.1240   45.5107 C.3     1  ZINC001067316277   -0.1400
     24 C24        -2.5174    3.4023   47.7673 C.3     1  ZINC001067316277    0.0800
     25 N25        -4.2733    2.0997   50.2286 N.ar    1  ZINC001067316277   -0.5400
     26 H26        -6.6990    1.1964   49.3693 H       1  ZINC001067316277    0.0900
     27 H27        -5.8010   -0.0994   50.1956 H       1  ZINC001067316277    0.0900
     28 H28        -7.5714   -0.0034   50.3531 H       1  ZINC001067316277    0.1000
     29 H29        -4.9509    3.7194   53.0611 H       1  ZINC001067316277    0.1500
     30 H30        -2.8085    4.7983   52.4355 H       1  ZINC001067316277    0.1700
     31 H31        -2.9585    0.3093   49.0178 H       1  ZINC001067316277    0.1000
     32 H32        -4.0129    1.2168   47.9077 H       1  ZINC001067316277    0.0500
     33 H33        -1.1001    0.4637   47.3898 H       1  ZINC001067316277    0.0800
     34 H34        -2.5240   -0.3074   46.6492 H       1  ZINC001067316277    0.0800
     35 H35        -0.3940    1.6852   44.7786 H       1  ZINC001067316277    0.3900
     36 H36         0.9635    1.2028   43.1776 H       1  ZINC001067316277    0.1500
     37 H37         1.8365   -0.0265   40.9669 H       1  ZINC001067316277    0.1500
     38 H38        -0.0584   -1.6322   40.1376 H       1  ZINC001067316277    0.1700
     39 H39        -1.9947   -1.3922   41.7809 H       1  ZINC001067316277    0.4100
     40 H40         0.4267    2.5786   46.1747 H       1  ZINC001067316277    0.0500
     41 H41         0.1647    3.7906   47.4516 H       1  ZINC001067316277    0.0600
     42 H42        -0.1410    2.0686   47.7828 H       1  ZINC001067316277    0.0700
     43 H43        -2.7533    4.2451   45.1857 H       1  ZINC001067316277    0.0600
     44 H44        -1.3604    5.0613   45.9355 H       1  ZINC001067316277    0.0600
     45 H45        -1.1001    3.8507   44.6568 H       1  ZINC001067316277    0.0600
     46 H46        -3.5477    3.5362   47.4377 H       1  ZINC001067316277    0.0600
     47 H47        -2.1517    4.3323   48.2026 H       1  ZINC001067316277    0.1000
@<TRIPOS>BOND
     1     1     2    1
     2     1    26    1
     3     1    27    1
     4     1    28    1
     5     2     3    1
     6     3    25   ar
     7     3     4   ar
     8     4     5   ar
     9     4    29    1
    10     5     6   ar
    11     5    30    1
    12     6     7   ar
    13     7     8    1
    14     7    25   ar
    15     8    24    1
    16     8     9    1
    17     9    10    1
    18     9    31    1
    19     9    32    1
    20    10    11    1
    21    10    33    1
    22    10    34    1
    23    11    12    1
    24    11    13    1
    25    11    21    1
    26    13    14   am
    27    13    35    1
    28    14    15    2
    29    14    16    1
    30    16    20    1
    31    16    17    2
    32    17    18    1
    33    17    36    1
    34    18    19    2
    35    18    37    1
    36    19    20    1
    37    19    38    1
    38    20    39    1
    39    21    22    1
    40    21    23    1
    41    21    24    1
    42    22    40    1
    43    22    41    1
    44    22    42    1
    45    23    43    1
    46    23    44    1
    47    23    45    1
    48    24    46    1
    49    24    47    1
@<TRIPOS>SUBSTRUCTURE
     1 ZINC001067316277        1 TEMP              0 ****  ****    0 ROOT


##########                                Name:    ZINC000179496896
##########                DOCK_Rotatable_Bonds:                   8
##########                         Heavy_Atoms:                  27
##########                    Molecular_Weight:             396.504
##########                DOCK_Rotatable_Bonds:                   8
##########                       Formal_Charge:          0.00999944
##########                     HBond_Acceptors:                   8
##########                        HBond_Donors:                   1
##########                         Heavy_Atoms:                  27
##########                          Grid_Score:          -36.338757
##########                     Grid_vdw_energy:          -35.773731
##########                      Grid_es_energy:           -0.565025
##########           Internal_energy_repulsive:           29.356234

@<TRIPOS>MOLECULE
ZINC000179496896
 53 55 1 0 0
SMALL
USER_CHARGES


@<TRIPOS>ATOM
      1 C1          1.8810    2.5502   40.4410 C.3     1  ZINC000179496896   -0.1500
      2 C2          2.4427    1.2658   39.8282 C.3     1  ZINC000179496896   -0.1100
      3 C3          3.8211    1.5479   39.2271 C.3     1  ZINC000179496896   -0.1400
      4 C4          2.5691    0.1954   40.9140 C.3     1  ZINC000179496896    0.1200
      5 N5          1.2584   -0.0368   41.5259 N.pl3   1  ZINC000179496896   -0.3300
      6 N6          0.1946   -0.7327   40.9409 N.2     1  ZINC000179496896   -0.2700
      7 C7         -0.8117   -0.7418   41.7709 C.2     1  ZINC000179496896    0.0800
      8 C8         -0.4241   -0.0419   42.9354 C.2     1  ZINC000179496896   -0.2500
      9 C9         -1.2521    0.1910   44.1327 C.2     1  ZINC000179496896    0.5900
     10 O10        -2.4561    0.0280   44.0807 O.2     1  ZINC000179496896   -0.5300
     11 N11        -0.6747    0.5846   45.2853 N.am    1  ZINC000179496896   -0.7100
     12 C12        -1.4977    0.8178   46.4746 C.3     1  ZINC000179496896    0.1300
     13 C13        -1.6000    2.3216   46.7371 C.3     1  ZINC000179496896    0.0700
     14 H14        -0.6034    2.7626   46.7168 H       1  ZINC000179496896    0.0900
     15 C15        -2.4668    2.9702   45.6559 C.3     1  ZINC000179496896   -0.1900
     16 N16        -2.2092    2.5485   48.0544 N.3     1  ZINC000179496896   -0.5300
     17 C17        -1.2055    2.4470   49.1234 C.3     1  ZINC000179496896    0.0600
     18 C18        -1.7718    3.0721   50.4042 C.3     1  ZINC000179496896   -0.0400
     19 C19        -3.1572    2.5047   50.6308 C.2     1  ZINC000179496896   -0.1700
     20 C20        -3.8669    1.8516   49.6891 C.2     1  ZINC000179496896   -0.1100
     21 C21        -5.1128    1.4198   50.1293 C.2     1  ZINC000179496896   -0.1200
     22 C22        -5.4110    1.7130   51.3919 C.2     1  ZINC000179496896   -0.2200
     23 S23        -4.0749    2.5887   52.1255 S.3     1  ZINC000179496896    0.1000
     24 C24        -3.3280    1.6244   48.2833 C.3     1  ZINC000179496896    0.1200
     25 C25         0.8773    0.3773   42.7448 C.2     1  ZINC000179496896    0.0700
     26 C26         1.7130    1.1641   43.7213 C.3     1  ZINC000179496896    0.3400
     27 F27         1.0314    2.3305   44.0847 F       1  ZINC000179496896   -0.1500
     28 F28         1.9515    0.3890   44.8613 F       1  ZINC000179496896   -0.2000
     29 H29         1.7910    3.3128   39.6675 H       1  ZINC000179496896    0.0600
     30 H30         0.8990    2.3492   40.8692 H       1  ZINC000179496896    0.0600
     31 H31         2.5530    2.9036   41.2231 H       1  ZINC000179496896    0.0600
     32 H32         1.7707    0.9124   39.0460 H       1  ZINC000179496896    0.0800
     33 H33         4.4931    1.9012   40.0092 H       1  ZINC000179496896    0.0600
     34 H34         4.2213    0.6328   38.7904 H       1  ZINC000179496896    0.0600
     35 H35         3.7311    2.3104   38.4535 H       1  ZINC000179496896    0.0700
     36 H36         2.9320   -0.7316   40.4699 H       1  ZINC000179496896    0.1000
     37 H37         3.2715    0.5324   41.6764 H       1  ZINC000179496896    0.1000
     38 H38        -1.7727   -1.2033   41.5981 H       1  ZINC000179496896    0.2000
     39 H39         0.2858    0.7136   45.3272 H       1  ZINC000179496896    0.4100
     40 H40        -2.4948    0.4086   46.3123 H       1  ZINC000179496896    0.0700
     41 H41        -1.0399    0.3292   47.3347 H       1  ZINC000179496896    0.0700
     42 H42        -2.5397    4.0415   45.8428 H       1  ZINC000179496896    0.0600
     43 H43        -2.0148    2.8018   44.6784 H       1  ZINC000179496896    0.0700
     44 H44        -3.4634    2.5292   45.6761 H       1  ZINC000179496896    0.0600
     45 H45        -0.9695    1.3981   49.3033 H       1  ZINC000179496896    0.0400
     46 H46        -0.3019    2.9794   48.8267 H       1  ZINC000179496896    0.0900
     47 H47        -1.1299    2.8248   51.2496 H       1  ZINC000179496896    0.0800
     48 H48        -1.8314    4.1544   50.2903 H       1  ZINC000179496896    0.0900
     49 H49        -5.7945    0.8815   49.4875 H       1  ZINC000179496896    0.1400
     50 H50        -6.3330    1.4526   51.8904 H       1  ZINC000179496896    0.1600
     51 H51        -4.1155    1.8156   47.5543 H       1  ZINC000179496896    0.0900
     52 H52        -2.9788    0.5963   48.1872 H       1  ZINC000179496896    0.0500
     53 H53         2.6629    1.4282   43.2565 H       1  ZINC000179496896    0.1300
@<TRIPOS>BOND
     1     1     2    1
     2     1    29    1
     3     1    30    1
     4     1    31    1
     5     2     3    1
     6     2     4    1
     7     2    32    1
     8     3    33    1
     9     3    34    1
    10     3    35    1
    11     4     5    1
    12     4    36    1
    13     4    37    1
    14     5    25    1
    15     5     6    1
    16     6     7    2
    17     7     8    1
    18     7    38    1
    19     8     9    1
    20     8    25    2
    21     9    10    2
    22     9    11   am
    23    11    12    1
    24    11    39    1
    25    12    13    1
    26    12    40    1
    27    12    41    1
    28    13    14    1
    29    13    15    1
    30    13    16    1
    31    15    42    1
    32    15    43    1
    33    15    44    1
    34    16    24    1
    35    16    17    1
    36    17    18    1
    37    17    45    1
    38    17    46    1
    39    18    19    1
    40    18    47    1
    41    18    48    1
    42    19    23    1
    43    19    20    2
    44    20    21    1
    45    20    24    1
    46    21    22    2
    47    21    49    1
    48    22    23    1
    49    22    50    1
    50    24    51    1
    51    24    52    1
    52    25    26    1
    53    26    27    1
    54    26    28    1
    55    26    53    1
@<TRIPOS>SUBSTRUCTURE
     1 ZINC000179496896        1 TEMP              0 ****  ****    0 ROOT


##########                                Name:    ZINC001090961577
##########                DOCK_Rotatable_Bonds:                   9
##########                         Heavy_Atoms:                  24
##########                    Molecular_Weight:             352.458
##########                DOCK_Rotatable_Bonds:                   9
##########                       Formal_Charge:                0.02
##########                     HBond_Acceptors:                   8
##########                        HBond_Donors:                   1
##########                         Heavy_Atoms:                  24
##########                          Grid_Score:          -36.325470
##########                     Grid_vdw_energy:          -36.521400
##########                      Grid_es_energy:            0.195929
##########           Internal_energy_repulsive:            9.378551

@<TRIPOS>MOLECULE
ZINC001090961577
 48 49 1 0 0
SMALL
USER_CHARGES


@<TRIPOS>ATOM
      1 C1        -12.0728   -2.8898   52.3948 C.3     1  ZINC001090961577   -0.1400
      2 C2        -12.9083   -3.9702   53.0846 C.3     1  ZINC001090961577   -0.0900
      3 S3        -12.6944   -3.8445   54.8816 S.3     1  ZINC001090961577   -0.2700
      4 C4        -13.7430   -5.1837   55.5120 C.3     1  ZINC001090961577   -0.0700
      5 C5        -13.6708   -5.2118   57.0400 C.3     1  ZINC001090961577   -0.1200
      6 C6        -12.2649   -4.8976   57.4823 C.2     1  ZINC001090961577    0.5400
      7 O7        -11.3539   -5.6388   57.1794 O.2     1  ZINC001090961577   -0.5300
      8 N8        -12.0199   -3.7931   58.2147 N.am    1  ZINC001090961577   -0.6200
      9 C9        -13.0258   -2.8131   58.6502 C.3     1  ZINC001090961577    0.1100
     10 C10       -12.2908   -1.7409   59.4819 C.3     1  ZINC001090961577   -0.1100
     11 H11       -12.0391   -0.8790   58.8639 H       1  ZINC001090961577    0.0900
     12 C12       -13.1363   -1.3144   60.6836 C.3     1  ZINC001090961577   -0.1400
     13 C13       -11.0066   -2.4791   59.9436 C.3     1  ZINC001090961577    0.1500
     14 H14       -11.2020   -3.0883   60.8261 H       1  ZINC001090961577    0.1200
     15 N15        -9.9174   -1.5318   60.1937 N.pl3   1  ZINC001090961577   -0.6700
     16 C16        -9.8429   -0.8699   61.4012 C.ar    1  ZINC001090961577    0.5900
     17 N17       -10.2113    0.4032   61.4615 N.ar    1  ZINC001090961577   -0.5700
     18 C18       -10.1550    1.0719   62.5976 C.ar    1  ZINC001090961577    0.2700
     19 C19        -9.6977    0.4173   63.7495 C.ar    1  ZINC001090961577   -0.3000
     20 C20        -9.6184    1.1247   65.0405 C.2     1  ZINC001090961577    0.5300
     21 O21       -10.5563    1.0879   65.8121 O.2     1  ZINC001090961577   -0.5100
     22 O22        -8.5058    1.8121   65.3649 O.3     1  ZINC001090961577   -0.3600
     23 C23        -7.5107    1.1175   66.1621 C.3     1  ZINC001090961577    0.0400
     24 C24        -9.3183   -0.9277   63.6420 C.ar    1  ZINC001090961577    0.2600
     25 N25        -9.4097   -1.5265   62.4698 N.ar    1  ZINC001090961577   -0.5700
     26 C26       -10.6998   -3.3707   58.7173 C.3     1  ZINC001090961577    0.0900
     27 H27       -12.2013   -2.9653   51.3150 H       1  ZINC001090961577    0.0700
     28 H28       -12.4007   -1.9065   52.7319 H       1  ZINC001090961577    0.0700
     29 H29       -11.0212   -3.0280   52.6461 H       1  ZINC001090961577    0.0700
     30 H30       -13.9599   -3.8319   52.8333 H       1  ZINC001090961577    0.0800
     31 H31       -12.5804   -4.9535   52.7475 H       1  ZINC001090961577    0.0800
     32 H32       -14.7738   -5.0156   55.1999 H       1  ZINC001090961577    0.0900
     33 H33       -13.3938   -6.1366   55.1141 H       1  ZINC001090961577    0.0900
     34 H34       -14.3552   -4.4691   57.4499 H       1  ZINC001090961577    0.1000
     35 H35       -13.9519   -6.2020   57.3988 H       1  ZINC001090961577    0.1000
     36 H36       -13.4941   -2.3515   57.7810 H       1  ZINC001090961577    0.0800
     37 H37       -13.7809   -3.3048   59.2635 H       1  ZINC001090961577    0.0800
     38 H38       -13.3515   -2.1846   61.3037 H       1  ZINC001090961577    0.0600
     39 H39       -12.5881   -0.5770   61.2701 H       1  ZINC001090961577    0.0600
     40 H40       -14.0714   -0.8776   60.3332 H       1  ZINC001090961577    0.0700
     41 H41        -9.2486   -1.3702   59.5098 H       1  ZINC001090961577    0.4200
     42 H42       -10.4563    2.1082   62.6391 H       1  ZINC001090961577    0.1800
     43 H43        -6.6682    1.7827   66.3517 H       1  ZINC001090961577    0.1100
     44 H44        -7.9533    0.8123   67.1103 H       1  ZINC001090961577    0.0700
     45 H45        -7.1637    0.2362   65.6227 H       1  ZINC001090961577    0.0700
     46 H46        -8.9606   -1.4671   64.5066 H       1  ZINC001090961577    0.1800
     47 H47       -10.1091   -4.2367   59.0160 H       1  ZINC001090961577    0.0900
     48 H48       -10.1746   -2.7974   57.9533 H       1  ZINC001090961577    0.0800
@<TRIPOS>BOND
     1     1     2    1
     2     1    27    1
     3     1    28    1
     4     1    29    1
     5     2     3    1
     6     2    30    1
     7     2    31    1
     8     3     4    1
     9     4     5    1
    10     4    32    1
    11     4    33    1
    12     5     6    1
    13     5    34    1
    14     5    35    1
    15     6     7    2
    16     6     8   am
    17     8    26    1
    18     8     9    1
    19     9    10    1
    20     9    36    1
    21     9    37    1
    22    10    11    1
    23    10    12    1
    24    10    13    1
    25    12    38    1
    26    12    39    1
    27    12    40    1
    28    13    14    1
    29    13    15    1
    30    13    26    1
    31    15    16    1
    32    15    41    1
    33    16    25   ar
    34    16    17   ar
    35    17    18   ar
    36    18    19   ar
    37    18    42    1
    38    19    20    1
    39    19    24   ar
    40    20    21    2
    41    20    22    1
    42    22    23    1
    43    23    43    1
    44    23    44    1
    45    23    45    1
    46    24    25   ar
    47    24    46    1
    48    26    47    1
    49    26    48    1
@<TRIPOS>SUBSTRUCTURE
     1 ZINC001090961577        1 TEMP              0 ****  ****    0 ROOT


##########                                Name:    ZINC000740843182
##########                DOCK_Rotatable_Bonds:                  10
##########                         Heavy_Atoms:                  24
##########                    Molecular_Weight:              419.34
##########                DOCK_Rotatable_Bonds:                  10
##########                       Formal_Charge:          0.00999957
##########                     HBond_Acceptors:                   7
##########                        HBond_Donors:                   3
##########                         Heavy_Atoms:                  24
##########                          Grid_Score:          -36.318954
##########                     Grid_vdw_energy:          -34.772778
##########                      Grid_es_energy:           -1.546177
##########           Internal_energy_repulsive:           12.178774

@<TRIPOS>MOLECULE
ZINC000740843182
 47 48 1 0 0
SMALL
USER_CHARGES


@<TRIPOS>ATOM
      1 C1         -9.3265   -2.5630   60.9021 C.3     1  ZINC000740843182   -0.1500
      2 C2        -10.2204   -2.2909   59.6905 C.3     1  ZINC000740843182   -0.1000
      3 H3         -9.6194   -1.8749   58.8818 H       1  ZINC000740843182    0.0900
      4 C4        -10.8633   -3.5996   59.2270 C.3     1  ZINC000740843182    0.1200
      5 N5        -11.5375   -3.3852   57.9443 N.am    1  ZINC000740843182   -0.7200
      6 C6        -11.6066   -4.3855   57.0437 C.2     1  ZINC000740843182    0.5500
      7 O7        -11.1081   -5.4653   57.2952 O.2     1  ZINC000740843182   -0.5000
      8 C8        -12.2883   -4.1696   55.7503 C.ar    1  ZINC000740843182   -0.1300
      9 C9        -11.6488   -3.4639   54.7299 C.ar    1  ZINC000740843182    0.0200
     10 C10       -12.2906   -3.2664   53.5249 C.ar    1  ZINC000740843182   -0.6800
     11 S11       -11.4845   -2.3758   52.2357 S.o2    1  ZINC000740843182    2.7000
     12 O12       -10.1137   -2.7459   52.2887 O.2     1  ZINC000740843182   -0.9400
     13 O13       -12.2882   -2.5351   51.0747 O.2     1  ZINC000740843182   -0.9500
     14 N14       -11.5509   -0.7697   52.6338 N.am    1  ZINC000740843182   -1.0900
     15 C15       -10.9360   -0.2970   53.8765 C.3     1  ZINC000740843182    0.0800
     16 C16        -9.4953    0.2126   53.8027 C.3     1  ZINC000740843182   -0.1800
     17 C17       -10.6472    1.2007   53.9967 C.3     1  ZINC000740843182   -0.1900
     18 C18       -13.5654   -3.7660   53.3257 C.ar    1  ZINC000740843182    0.0100
     19 C19       -14.2059   -4.4663   54.3320 C.ar    1  ZINC000740843182   -0.1200
     20 C20       -13.5736   -4.6758   55.5414 C.ar    1  ZINC000740843182    0.0100
     21 Br21      -14.4504   -5.6333   56.9164 Br      1  ZINC000740843182    0.0100
     22 C22       -11.3146   -1.2941   60.0776 C.3     1  ZINC000740843182   -0.1400
     23 C23       -10.7032    0.0999   60.2322 C.3     1  ZINC000740843182    0.1000
     24 H24        -9.8621    0.0531   60.9238 H       1  ZINC000740843182    0.1000
     25 C25       -11.7596    1.0625   60.7782 C.3     1  ZINC000740843182   -0.1900
     26 O26       -10.2481    0.5642   58.9596 O.3     1  ZINC000740843182   -0.5600
     27 H27        -8.8684   -1.6307   61.2323 H       1  ZINC000740843182    0.0600
     28 H28        -9.9273   -2.9790   61.7107 H       1  ZINC000740843182    0.0600
     29 H29        -8.5469   -3.2731   60.6263 H       1  ZINC000740843182    0.0500
     30 H30       -10.0926   -4.3614   59.1096 H       1  ZINC000740843182    0.0700
     31 H31       -11.5905   -3.9298   59.9689 H       1  ZINC000740843182    0.0700
     32 H32       -11.9342   -2.5232   57.7430 H       1  ZINC000740843182    0.4000
     33 H33       -10.6538   -3.0733   54.8836 H       1  ZINC000740843182    0.1500
     34 H34       -11.9969   -0.1420   52.0439 H       1  ZINC000740843182    0.4200
     35 H35       -11.2376   -0.8256   54.7809 H       1  ZINC000740843182    0.1400
     36 H36        -8.8485    0.0192   54.6585 H       1  ZINC000740843182    0.1100
     37 H37        -9.0050    0.1962   52.8293 H       1  ZINC000740843182    0.1000
     38 H38       -10.9147    1.8343   53.1511 H       1  ZINC000740843182    0.1000
     39 H39       -10.7583    1.6573   54.9802 H       1  ZINC000740843182    0.1100
     40 H40       -14.0628   -3.6082   52.3801 H       1  ZINC000740843182    0.1600
     41 H41       -15.2009   -4.8536   54.1700 H       1  ZINC000740843182    0.1500
     42 H42       -12.0776   -1.2720   59.2995 H       1  ZINC000740843182    0.0700
     43 H43       -11.7667   -1.5992   61.0213 H       1  ZINC000740843182    0.0800
     44 H44       -12.1066    0.7083   61.7490 H       1  ZINC000740843182    0.0700
     45 H45       -11.3240    2.0556   60.8883 H       1  ZINC000740843182    0.0600
     46 H46       -12.6008    1.1093   60.0866 H       1  ZINC000740843182    0.0600
     47 H47        -9.8741    1.4558   58.9769 H       1  ZINC000740843182    0.3700
@<TRIPOS>BOND
     1     1     2    1
     2     1    27    1
     3     1    28    1
     4     1    29    1
     5     2     3    1
     6     2     4    1
     7     2    22    1
     8     4     5    1
     9     4    30    1
    10     4    31    1
    11     5     6   am
    12     5    32    1
    13     6     7    2
    14     6     8    1
    15     8    20   ar
    16     8     9   ar
    17     9    10   ar
    18     9    33    1
    19    10    11    1
    20    10    18   ar
    21    11    12    2
    22    11    13    2
    23    11    14   am
    24    14    15    1
    25    14    34    1
    26    15    17    1
    27    15    16    1
    28    15    35    1
    29    16    17    1
    30    16    36    1
    31    16    37    1
    32    17    38    1
    33    17    39    1
    34    18    19   ar
    35    18    40    1
    36    19    20   ar
    37    19    41    1
    38    20    21    1
    39    22    23    1
    40    22    42    1
    41    22    43    1
    42    23    24    1
    43    23    25    1
    44    23    26    1
    45    25    44    1
    46    25    45    1
    47    25    46    1
    48    26    47    1
@<TRIPOS>SUBSTRUCTURE
     1 ZINC000740843182        1 TEMP              0 ****  ****    0 ROOT


##########                                Name:    ZINC000428748914
##########                DOCK_Rotatable_Bonds:                  11
##########                         Heavy_Atoms:                  30
##########                    Molecular_Weight:             413.492
##########                DOCK_Rotatable_Bonds:                  11
##########                       Formal_Charge:           0.0199993
##########                     HBond_Acceptors:                   7
##########                        HBond_Donors:                   3
##########                         Heavy_Atoms:                  30
##########                          Grid_Score:          -36.302090
##########                     Grid_vdw_energy:          -36.660908
##########                      Grid_es_energy:            0.358817
##########           Internal_energy_repulsive:           16.870623

@<TRIPOS>MOLECULE
ZINC000428748914
 58 61 1 0 0
SMALL
USER_CHARGES


@<TRIPOS>ATOM
      1 O1        -12.3975   -1.2264   54.7228 O.2     1  ZINC000428748914   -0.5900
      2 C2        -11.7916   -2.2803   54.7459 C.2     1  ZINC000428748914    0.7000
      3 N3        -11.2184   -2.7530   53.6214 N.am    1  ZINC000428748914   -0.7400
      4 C4        -11.3304   -1.9997   52.3699 C.3     1  ZINC000428748914    0.1900
      5 C5        -10.2506   -0.9498   52.3171 C.ar    1  ZINC000428748914   -0.2000
      6 C6        -10.5309    0.3629   52.6697 C.ar    1  ZINC000428748914   -0.0200
      7 C7         -9.5100    1.2956   52.6071 C.ar    1  ZINC000428748914   -0.1900
      8 C8         -8.2474    0.8889   52.1960 C.ar    1  ZINC000428748914    0.3300
      9 O9         -7.2382    1.7934   52.1308 O.3     1  ZINC000428748914   -0.3000
     10 C10        -5.9675    1.3165   51.6838 C.3     1  ZINC000428748914    0.0800
     11 C11        -5.9947    1.0493   50.1584 C.3     1  ZINC000428748914   -0.1400
     12 C12        -4.4994    1.1497   49.7670 C.3     1  ZINC000428748914   -0.1200
     13 C13        -3.9566    2.3007   50.6390 C.3     1  ZINC000428748914   -0.1200
     14 C14        -4.8900    2.4067   51.8577 C.3     1  ZINC000428748914   -0.1200
     15 N15        -8.0191   -0.3721   51.8679 N.ar    1  ZINC000428748914   -0.5400
     16 C16        -8.9702   -1.2848   51.9230 C.ar    1  ZINC000428748914    0.1600
     17 N17       -11.6886   -2.9732   55.8973 N.am    1  ZINC000428748914   -0.7400
     18 C18       -12.3117   -2.4595   57.1197 C.3     1  ZINC000428748914    0.1800
     19 C19       -11.2251   -2.1190   58.1416 C.3     1  ZINC000428748914   -0.1300
     20 C20       -10.6954   -0.6847   58.0885 C.3     1  ZINC000428748914    0.1100
     21 O21       -10.3401   -0.3576   56.7435 O.3     1  ZINC000428748914   -0.5700
     22 C22       -10.2357   -3.2246   58.5156 C.3     1  ZINC000428748914   -0.1400
     23 C23       -11.3107   -2.7901   59.5139 C.3     1  ZINC000428748914   -0.1000
     24 H24       -12.1411   -3.4742   59.6887 H       1  ZINC000428748914    0.1200
     25 C25       -10.8662   -1.9883   60.7100 C.ar    1  ZINC000428748914   -0.0700
     26 C26       -11.6734   -0.9811   61.2051 C.ar    1  ZINC000428748914   -0.0900
     27 C27       -11.2668   -0.2452   62.3018 C.ar    1  ZINC000428748914   -0.1500
     28 C28       -10.0507   -0.5174   62.9052 C.ar    1  ZINC000428748914    0.1000
     29 F29        -9.6524    0.2010   63.9778 F       1  ZINC000428748914   -0.1400
     30 C30        -9.2433   -1.5268   62.4088 C.ar    1  ZINC000428748914   -0.1500
     31 C31        -9.6541   -2.2644   61.3148 C.ar    1  ZINC000428748914   -0.0800
     32 H32       -10.7317   -3.5918   53.6407 H       1  ZINC000428748914    0.4000
     33 H33       -11.2178   -2.6795   51.5253 H       1  ZINC000428748914    0.0800
     34 H34       -12.3074   -1.5188   52.3214 H       1  ZINC000428748914    0.0800
     35 H35       -11.5229    0.6503   52.9854 H       1  ZINC000428748914    0.1400
     36 H36        -9.6930    2.3261   52.8739 H       1  ZINC000428748914    0.1400
     37 H37        -5.6875    0.4135   52.2263 H       1  ZINC000428748914    0.1000
     38 H38        -6.3831    0.0530   49.9476 H       1  ZINC000428748914    0.0700
     39 H39        -6.5807    1.8105   49.6432 H       1  ZINC000428748914    0.0800
     40 H40        -3.9813    0.2190   49.9980 H       1  ZINC000428748914    0.0700
     41 H41        -4.3974    1.3918   48.7091 H       1  ZINC000428748914    0.0700
     42 H42        -2.9411    2.0753   50.9649 H       1  ZINC000428748914    0.0700
     43 H43        -3.9700    3.2340   50.0761 H       1  ZINC000428748914    0.0700
     44 H44        -5.3564    3.3915   51.8863 H       1  ZINC000428748914    0.0800
     45 H45        -4.3275    2.2328   52.7751 H       1  ZINC000428748914    0.0700
     46 H46        -8.7468   -2.3049   51.6478 H       1  ZINC000428748914    0.1600
     47 H47       -11.2019   -3.8121   55.9167 H       1  ZINC000428748914    0.3900
     48 H48       -12.8848   -1.5624   56.8860 H       1  ZINC000428748914    0.0700
     49 H49       -12.9763   -3.2173   57.5348 H       1  ZINC000428748914    0.0900
     50 H50       -11.4676    0.0010   58.4373 H       1  ZINC000428748914    0.0500
     51 H51        -9.8169   -0.5978   58.7277 H       1  ZINC000428748914    0.0600
     52 H52       -11.0814   -0.3846   56.1232 H       1  ZINC000428748914    0.3800
     53 H53       -10.3590   -4.1944   58.0336 H       1  ZINC000428748914    0.1100
     54 H54        -9.2071   -2.9302   58.7237 H       1  ZINC000428748914    0.1100
     55 H55       -12.6219   -0.7690   60.7342 H       1  ZINC000428748914    0.1400
     56 H56       -11.8972    0.5420   62.6880 H       1  ZINC000428748914    0.1400
     57 H57        -8.2943   -1.7397   62.8785 H       1  ZINC000428748914    0.1400
     58 H58        -9.0247   -3.0520   60.9277 H       1  ZINC000428748914    0.1300
@<TRIPOS>BOND
     1     1     2    2
     2     2     3   am
     3     2    17   am
     4     3     4    1
     5     3    32    1
     6     4     5    1
     7     4    33    1
     8     4    34    1
     9     5    16   ar
    10     5     6   ar
    11     6     7   ar
    12     6    35    1
    13     7     8   ar
    14     7    36    1
    15     8     9    1
    16     8    15   ar
    17     9    10    1
    18    10    14    1
    19    10    11    1
    20    10    37    1
    21    11    12    1
    22    11    38    1
    23    11    39    1
    24    12    13    1
    25    12    40    1
    26    12    41    1
    27    13    14    1
    28    13    42    1
    29    13    43    1
    30    14    44    1
    31    14    45    1
    32    15    16   ar
    33    16    46    1
    34    17    18    1
    35    17    47    1
    36    18    19    1
    37    18    48    1
    38    18    49    1
    39    19    23    1
    40    19    20    1
    41    19    22    1
    42    20    21    1
    43    20    50    1
    44    20    51    1
    45    21    52    1
    46    22    23    1
    47    22    53    1
    48    22    54    1
    49    23    24    1
    50    23    25    1
    51    25    31   ar
    52    25    26   ar
    53    26    27   ar
    54    26    55    1
    55    27    28   ar
    56    27    56    1
    57    28    29    1
    58    28    30   ar
    59    30    31   ar
    60    30    57    1
    61    31    58    1
@<TRIPOS>SUBSTRUCTURE
     1 ZINC000428748914        1 TEMP              0 ****  ****    0 ROOT


##########                                Name:    ZINC000929592477
##########                DOCK_Rotatable_Bonds:                   7
##########                         Heavy_Atoms:                  28
##########                    Molecular_Weight:             399.517
##########                DOCK_Rotatable_Bonds:                   7
##########                       Formal_Charge:         -8.9407e-08
##########                     HBond_Acceptors:                   8
##########                        HBond_Donors:                   3
##########                         Heavy_Atoms:                  28
##########                          Grid_Score:          -36.289051
##########                     Grid_vdw_energy:          -34.582626
##########                      Grid_es_energy:           -1.706426
##########           Internal_energy_repulsive:           61.774323

@<TRIPOS>MOLECULE
ZINC000929592477
 53 56 1 0 0
SMALL
USER_CHARGES


@<TRIPOS>ATOM
      1 O1        -11.7955   -3.5024   55.7015 O.2     1  ZINC000929592477   -0.5700
      2 C2        -12.4450   -4.0781   54.8498 C.2     1  ZINC000929592477    0.7100
      3 N3        -12.4429   -3.6254   53.5803 N.am    1  ZINC000929592477   -0.6800
      4 C4        -11.6966   -2.4876   53.2430 C.ar    1  ZINC000929592477    0.1600
      5 C5        -10.5372   -2.6161   52.4898 C.ar    1  ZINC000929592477   -0.1300
      6 C6         -9.8017   -1.4961   52.1577 C.ar    1  ZINC000929592477   -0.0800
      7 C7        -10.2219   -0.2399   52.5771 C.ar    1  ZINC000929592477   -0.1000
      8 S8         -9.2840    1.1902   52.1531 S.3     1  ZINC000929592477   -0.1100
      9 C9         -9.6038    2.3141   53.5405 C.3     1  ZINC000929592477   -0.0800
     10 C10        -9.0166    1.7369   54.8523 C.3     1  ZINC000929592477   -0.1200
     11 C11        -8.8262    3.0009   55.7270 C.3     1  ZINC000929592477   -0.1200
     12 C12        -8.3551    4.0818   54.7322 C.3     1  ZINC000929592477   -0.1200
     13 C13        -8.8496    3.6452   53.3420 C.3     1  ZINC000929592477   -0.1000
     14 C14       -11.3824   -0.1116   53.3303 C.ar    1  ZINC000929592477   -0.1200
     15 C15       -12.1200   -1.2318   53.6574 C.ar    1  ZINC000929592477   -0.1000
     16 N16       -13.1625   -5.1719   55.1740 N.am    1  ZINC000929592477   -0.7300
     17 C17       -13.1647   -5.6639   56.5540 C.3     1  ZINC000929592477    0.1500
     18 H18       -13.3676   -6.7345   56.5799 H       1  ZINC000929592477    0.1200
     19 C19       -14.1991   -4.8883   57.4116 C.3     1  ZINC000929592477   -0.1400
     20 C20       -13.3967   -3.6198   57.7947 C.3     1  ZINC000929592477    0.1100
     21 N21       -12.0179   -4.0955   58.0085 N.pl3   1  ZINC000929592477   -0.6000
     22 C22       -11.0652   -3.4753   58.7906 C.2     1  ZINC000929592477    0.4600
     23 C23       -11.2044   -2.1401   59.1314 C.2     1  ZINC000929592477   -0.4000
     24 C24       -10.2144   -1.5479   59.9276 C.2     1  ZINC000929592477    0.5300
     25 O25       -10.2969   -0.3739   60.2521 O.2     1  ZINC000929592477   -0.5500
     26 N26        -9.1684   -2.3003   60.3288 N.am    1  ZINC000929592477   -0.6400
     27 C27        -9.0841   -3.5960   59.9668 C.2     1  ZINC000929592477    0.4100
     28 N28       -10.0000   -4.1632   59.2310 N.2     1  ZINC000929592477   -0.5700
     29 C29       -11.8243   -5.3452   57.2494 C.3     1  ZINC000929592477    0.1100
     30 H30       -12.9578   -4.0869   52.9000 H       1  ZINC000929592477    0.4100
     31 H31       -10.2106   -3.5926   52.1640 H       1  ZINC000929592477    0.1300
     32 H32        -8.8996   -1.5962   51.5725 H       1  ZINC000929592477    0.1300
     33 H33       -10.6737    2.4940   53.6458 H       1  ZINC000929592477    0.1000
     34 H34        -9.7193    1.0464   55.3190 H       1  ZINC000929592477    0.0700
     35 H35        -8.0601    1.2487   54.6655 H       1  ZINC000929592477    0.0800
     36 H36        -9.7703    3.2918   56.1877 H       1  ZINC000929592477    0.0700
     37 H37        -8.0665    2.8266   56.4889 H       1  ZINC000929592477    0.0700
     38 H38        -8.7882    5.0465   54.9964 H       1  ZINC000929592477    0.0700
     39 H39        -7.2671    4.1461   54.7383 H       1  ZINC000929592477    0.0700
     40 H40        -8.0015    3.4976   52.6734 H       1  ZINC000929592477    0.0700
     41 H41        -9.5226    4.3980   52.9317 H       1  ZINC000929592477    0.0800
     42 H42       -11.7095    0.8647   53.6564 H       1  ZINC000929592477    0.1300
     43 H43       -13.0222   -1.1321   54.2426 H       1  ZINC000929592477    0.1400
     44 H44       -13.6775   -5.6333   54.4938 H       1  ZINC000929592477    0.4000
     45 H45       -15.0798   -4.6307   56.8232 H       1  ZINC000929592477    0.0900
     46 H46       -14.4767   -5.4577   58.2986 H       1  ZINC000929592477    0.0900
     47 H47       -13.4258   -2.8930   56.9829 H       1  ZINC000929592477    0.0700
     48 H48       -13.7934   -3.1823   58.7110 H       1  ZINC000929592477    0.0800
     49 H49       -12.0555   -1.5687   58.7915 H       1  ZINC000929592477    0.1500
     50 H50        -8.4738   -1.9067   60.8798 H       1  ZINC000929592477    0.4200
     51 H51        -8.2388   -4.1808   60.2981 H       1  ZINC000929592477    0.2100
     52 H52       -11.5550   -6.1538   57.9289 H       1  ZINC000929592477    0.0900
     53 H53       -11.0413   -5.2085   56.5036 H       1  ZINC000929592477    0.0800
@<TRIPOS>BOND
     1     1     2    2
     2     2     3   am
     3     2    16   am
     4     3     4    1
     5     3    30    1
     6     4    15   ar
     7     4     5   ar
     8     5     6   ar
     9     5    31    1
    10     6     7   ar
    11     6    32    1
    12     7     8    1
    13     7    14   ar
    14     8     9    1
    15     9    13    1
    16     9    10    1
    17     9    33    1
    18    10    11    1
    19    10    34    1
    20    10    35    1
    21    11    12    1
    22    11    36    1
    23    11    37    1
    24    12    13    1
    25    12    38    1
    26    12    39    1
    27    13    40    1
    28    13    41    1
    29    14    15   ar
    30    14    42    1
    31    15    43    1
    32    16    17    1
    33    16    44    1
    34    17    18    1
    35    17    29    1
    36    17    19    1
    37    19    20    1
    38    19    45    1
    39    19    46    1
    40    20    21    1
    41    20    47    1
    42    20    48    1
    43    21    22    1
    44    21    29    1
    45    22    28    1
    46    22    23    2
    47    23    24    1
    48    23    49    1
    49    24    25    2
    50    24    26   am
    51    26    27    1
    52    26    50    1
    53    27    28    2
    54    27    51    1
    55    29    52    1
    56    29    53    1
@<TRIPOS>SUBSTRUCTURE
     1 ZINC000929592477        1 TEMP              0 ****  ****    0 ROOT


##########                                Name:    ZINC000004598904
##########                DOCK_Rotatable_Bonds:                  13
##########                         Heavy_Atoms:                  30
##########                    Molecular_Weight:             412.442
##########                DOCK_Rotatable_Bonds:                  13
##########                       Formal_Charge:          -0.0300005
##########                     HBond_Acceptors:                   8
##########                        HBond_Donors:                   2
##########                         Heavy_Atoms:                  30
##########                          Grid_Score:          -36.244308
##########                     Grid_vdw_energy:          -37.391243
##########                      Grid_es_energy:            1.146935
##########           Internal_energy_repulsive:           28.497494

@<TRIPOS>MOLECULE
ZINC000004598904
 54 55 1 0 0
SMALL
USER_CHARGES


@<TRIPOS>ATOM
      1 C1         -3.9099    4.2357   52.9625 C.3     1  ZINC000004598904   -0.1500
      2 C2         -5.3603    4.7081   52.8445 C.3     1  ZINC000004598904    0.0600
      3 O3         -6.2503    3.5641   52.9285 O.3     1  ZINC000004598904   -0.3500
      4 C4         -6.1045    2.6055   51.9928 C.2     1  ZINC000004598904    0.5100
      5 O5         -5.2279    2.7010   51.1568 O.2     1  ZINC000004598904   -0.5100
      6 C6         -7.0088    1.4407   51.9832 C.ar    1  ZINC000004598904   -0.1500
      7 C7         -6.9164    0.4902   50.9621 C.ar    1  ZINC000004598904   -0.0400
      8 C8         -7.7623   -0.5956   50.9564 C.ar    1  ZINC000004598904   -0.1400
      9 C9         -8.7084   -0.7481   51.9652 C.ar    1  ZINC000004598904    0.1800
     10 N10        -9.5631   -1.8494   51.9564 N.am    1  ZINC000004598904   -0.6700
     11 C11       -10.8984   -1.6662   51.9534 C.2     1  ZINC000004598904    0.5200
     12 O12       -11.3564   -0.5432   51.9581 O.2     1  ZINC000004598904   -0.5100
     13 C13       -11.8223   -2.8567   51.9438 C.3     1  ZINC000004598904   -0.1300
     14 C14       -12.8330   -2.7271   53.0851 C.3     1  ZINC000004598904   -0.1300
     15 C15       -12.1183   -2.8533   54.4059 C.2     1  ZINC000004598904    0.5200
     16 O16       -11.3563   -3.7772   54.5970 O.2     1  ZINC000004598904   -0.5100
     17 N17       -12.3260   -1.9396   55.3746 N.am    1  ZINC000004598904   -0.6700
     18 C18       -11.6648   -2.0565   56.5964 C.ar    1  ZINC000004598904    0.1800
     19 C19       -12.0700   -3.0195   57.5156 C.ar    1  ZINC000004598904   -0.1400
     20 C20       -11.4195   -3.1378   58.7228 C.ar    1  ZINC000004598904   -0.0300
     21 C21       -10.3503   -2.2893   59.0248 C.ar    1  ZINC000004598904   -0.1500
     22 C22        -9.6506   -2.4132   60.3170 C.2     1  ZINC000004598904    0.5100
     23 O23        -8.9615   -3.3879   60.5437 O.2     1  ZINC000004598904   -0.5100
     24 O24        -9.7755   -1.4455   61.2464 O.3     1  ZINC000004598904   -0.3600
     25 C25       -11.0348   -0.7237   61.2814 C.3     1  ZINC000004598904    0.0600
     26 C26       -10.8271    0.6317   61.9602 C.3     1  ZINC000004598904   -0.1500
     27 C27        -9.9455   -1.3232   58.0988 C.ar    1  ZINC000004598904   -0.0400
     28 C28       -10.5975   -1.2138   56.8915 C.ar    1  ZINC000004598904   -0.1600
     29 C29        -8.8033    0.1959   52.9831 C.ar    1  ZINC000004598904   -0.1600
     30 C30        -7.9569    1.2814   52.9983 C.ar    1  ZINC000004598904   -0.0300
     31 H31        -3.6868    3.5415   52.1522 H       1  ZINC000004598904    0.0700
     32 H32        -3.2417    5.0946   52.8994 H       1  ZINC000004598904    0.0800
     33 H33        -3.7678    3.7344   53.9199 H       1  ZINC000004598904    0.0700
     34 H34        -5.5834    5.4023   53.6548 H       1  ZINC000004598904    0.0700
     35 H35        -5.5024    5.2095   51.8871 H       1  ZINC000004598904    0.0700
     36 H36        -6.1825    0.6081   50.1786 H       1  ZINC000004598904    0.1400
     37 H37        -7.6917   -1.3301   50.1677 H       1  ZINC000004598904    0.1400
     38 H38        -9.1968   -2.7476   51.9527 H       1  ZINC000004598904    0.4200
     39 H39       -12.3522   -2.8979   50.9922 H       1  ZINC000004598904    0.1100
     40 H40       -11.2406   -3.7691   52.0756 H       1  ZINC000004598904    0.1100
     41 H41       -13.3223   -1.7547   53.0284 H       1  ZINC000004598904    0.1100
     42 H42       -13.5806   -3.5156   52.9998 H       1  ZINC000004598904    0.1100
     43 H43       -12.9354   -1.2007   55.2216 H       1  ZINC000004598904    0.4200
     44 H44       -12.8961   -3.6747   57.2815 H       1  ZINC000004598904    0.1400
     45 H45       -11.7350   -3.8849   59.4360 H       1  ZINC000004598904    0.1400
     46 H46       -11.3934   -0.5692   60.2637 H       1  ZINC000004598904    0.0700
     47 H47       -11.7695   -1.3018   61.8417 H       1  ZINC000004598904    0.0700
     48 H48       -11.7725    1.1735   61.9864 H       1  ZINC000004598904    0.0800
     49 H49       -10.4685    0.4772   62.9778 H       1  ZINC000004598904    0.0700
     50 H50       -10.0924    1.2099   61.3998 H       1  ZINC000004598904    0.0700
     51 H51        -9.1202   -0.6658   58.3289 H       1  ZINC000004598904    0.1400
     52 H52       -10.2853   -0.4680   56.1754 H       1  ZINC000004598904    0.1400
     53 H53        -9.5388    0.0745   53.7645 H       1  ZINC000004598904    0.1400
     54 H54        -8.0310    2.0137   53.7886 H       1  ZINC000004598904    0.1400
@<TRIPOS>BOND
     1     1     2    1
     2     1    31    1
     3     1    32    1
     4     1    33    1
     5     2     3    1
     6     2    34    1
     7     2    35    1
     8     3     4    1
     9     4     5    2
    10     4     6    1
    11     6    30   ar
    12     6     7   ar
    13     7     8   ar
    14     7    36    1
    15     8     9   ar
    16     8    37    1
    17     9    10    1
    18     9    29   ar
    19    10    11   am
    20    10    38    1
    21    11    12    2
    22    11    13    1
    23    13    14    1
    24    13    39    1
    25    13    40    1
    26    14    15    1
    27    14    41    1
    28    14    42    1
    29    15    16    2
    30    15    17   am
    31    17    18    1
    32    17    43    1
    33    18    28   ar
    34    18    19   ar
    35    19    20   ar
    36    19    44    1
    37    20    21   ar
    38    20    45    1
    39    21    22    1
    40    21    27   ar
    41    22    23    2
    42    22    24    1
    43    24    25    1
    44    25    26    1
    45    25    46    1
    46    25    47    1
    47    26    48    1
    48    26    49    1
    49    26    50    1
    50    27    28   ar
    51    27    51    1
    52    28    52    1
    53    29    30   ar
    54    29    53    1
    55    30    54    1
@<TRIPOS>SUBSTRUCTURE
     1 ZINC000004598904        1 TEMP              0 ****  ****    0 ROOT


##########                                Name:    ZINC000547864253
##########                DOCK_Rotatable_Bonds:                   6
##########                         Heavy_Atoms:                  30
##########                    Molecular_Weight:             422.548
##########                DOCK_Rotatable_Bonds:                   6
##########                       Formal_Charge:           0.0300002
##########                     HBond_Acceptors:                   6
##########                        HBond_Donors:                   2
##########                         Heavy_Atoms:                  30
##########                          Grid_Score:          -36.226280
##########                     Grid_vdw_energy:          -34.398090
##########                      Grid_es_energy:           -1.828189
##########           Internal_energy_repulsive:           19.859671

@<TRIPOS>MOLECULE
ZINC000547864253
 56 60 1 0 0
SMALL
USER_CHARGES


@<TRIPOS>ATOM
      1 O1        -11.8531   -4.7150   57.7435 O.2     1  ZINC000547864253   -0.5300
      2 C2        -12.6163   -3.7810   57.6166 C.2     1  ZINC000547864253    0.5400
      3 N3        -12.4221   -2.6510   58.3252 N.am    1  ZINC000547864253   -0.7200
      4 C4        -11.2926   -2.5533   59.2531 C.3     1  ZINC000547864253    0.1300
      5 C5        -11.1925   -1.1225   59.7857 C.3     1  ZINC000547864253    0.0200
      6 H6        -12.1941   -0.7224   59.9428 H       1  ZINC000547864253    0.0900
      7 C7        -10.4416   -1.1242   61.0922 C.2     1  ZINC000547864253   -0.1600
      8 C8         -9.4259   -1.9350   61.4284 C.2     1  ZINC000547864253    0.0600
      9 N9         -8.9958   -1.6438   62.6943 N.pl3   1  ZINC000547864253   -0.5900
     10 C10        -9.7433   -0.6123   63.2171 C.ar    1  ZINC000547864253    0.1000
     11 C11        -9.7283    0.0600   64.4345 C.ar    1  ZINC000547864253   -0.1300
     12 C12       -10.6288    1.0770   64.6658 C.ar    1  ZINC000547864253   -0.1000
     13 C13       -11.5525    1.4388   63.6954 C.ar    1  ZINC000547864253   -0.1400
     14 C14       -11.5848    0.7917   62.4920 C.ar    1  ZINC000547864253   -0.0700
     15 C15       -10.6776   -0.2374   62.2341 C.ar    1  ZINC000547864253   -0.1000
     16 C16       -10.4599   -0.2647   58.7864 C.ar    1  ZINC000547864253   -0.0700
     17 C17       -10.2276   -0.7376   57.5084 C.ar    1  ZINC000547864253   -0.1100
     18 C18        -9.5556    0.0493   56.5918 C.ar    1  ZINC000547864253   -0.1200
     19 C19        -9.1162    1.3092   56.9531 C.ar    1  ZINC000547864253   -0.1200
     20 C20        -9.3494    1.7825   58.2308 C.ar    1  ZINC000547864253   -0.1100
     21 C21       -10.0252    0.9973   59.1461 C.ar    1  ZINC000547864253   -0.1200
     22 C22       -13.7781   -3.8815   56.6621 C.3     1  ZINC000547864253   -0.1700
     23 H23       -14.7661   -3.7851   57.1124 H       1  ZINC000547864253    0.1400
     24 C24       -13.6341   -4.8315   55.4717 C.3     1  ZINC000547864253   -0.1300
     25 C25       -13.5856   -3.3166   55.2521 C.3     1  ZINC000547864253   -0.1400
     26 C26       -14.7970   -2.6631   54.5857 C.3     1  ZINC000547864253   -0.0700
     27 C27       -14.7113   -2.8440   53.0687 C.3     1  ZINC000547864253   -0.6000
     28 S28       -13.2018   -2.0428   52.4559 S.o2    1  ZINC000547864253    2.4200
     29 O29       -13.0266   -2.3893   51.0890 O.2     1  ZINC000547864253   -0.9400
     30 O30       -13.2334   -0.6713   52.8264 O.2     1  ZINC000547864253   -0.9300
     31 C31       -11.9225   -2.8803   53.4350 C.3     1  ZINC000547864253   -0.6000
     32 C32       -12.2269   -2.6965   54.9234 C.3     1  ZINC000547864253   -0.0700
     33 H33       -13.0301   -1.9026   58.2207 H       1  ZINC000547864253    0.4000
     34 H34       -11.4453   -3.2408   60.0849 H       1  ZINC000547864253    0.0800
     35 H35       -10.3709   -2.8124   58.7320 H       1  ZINC000547864253    0.0700
     36 H36        -9.0100   -2.7035   60.7937 H       1  ZINC000547864253    0.1700
     37 H37        -8.2721   -2.0966   63.1549 H       1  ZINC000547864253    0.4200
     38 H38        -9.0135   -0.2145   65.1963 H       1  ZINC000547864253    0.1200
     39 H39       -10.6158    1.5975   65.6120 H       1  ZINC000547864253    0.1300
     40 H40       -12.2517    2.2380   63.8928 H       1  ZINC000547864253    0.1200
     41 H41       -12.3065    1.0787   61.7416 H       1  ZINC000547864253    0.1200
     42 H42       -10.5708   -1.7220   57.2262 H       1  ZINC000547864253    0.1200
     43 H43        -9.3734   -0.3205   55.5936 H       1  ZINC000547864253    0.1200
     44 H44        -8.5907    1.9237   56.2372 H       1  ZINC000547864253    0.1200
     45 H45        -9.0059    2.7667   58.5131 H       1  ZINC000547864253    0.1200
     46 H46       -10.2074    1.3671   60.1443 H       1  ZINC000547864253    0.1200
     47 H47       -12.6990   -5.3839   55.3789 H       1  ZINC000547864253    0.1100
     48 H48       -14.5274   -5.3599   55.1386 H       1  ZINC000547864253    0.1100
     49 H49       -15.7100   -3.1297   54.9556 H       1  ZINC000547864253    0.0900
     50 H50       -14.8120   -1.5995   54.8238 H       1  ZINC000547864253    0.0900
     51 H51       -14.6819   -3.9072   52.8299 H       1  ZINC000547864253    0.1400
     52 H52       -15.5824   -2.3883   52.5978 H       1  ZINC000547864253    0.1400
     53 H53       -11.9163   -3.9431   53.1931 H       1  ZINC000547864253    0.1400
     54 H54       -10.9481   -2.4484   53.2065 H       1  ZINC000547864253    0.1400
     55 H55       -12.2467   -1.6328   55.1607 H       1  ZINC000547864253    0.0900
     56 H56       -11.4526   -3.1850   55.5148 H       1  ZINC000547864253    0.0900
@<TRIPOS>BOND
     1     1     2    2
     2     2     3   am
     3     2    22    1
     4     3     4    1
     5     3    33    1
     6     4     5    1
     7     4    34    1
     8     4    35    1
     9     5     6    1
    10     5     7    1
    11     5    16    1
    12     7    15    1
    13     7     8    2
    14     8     9    1
    15     8    36    1
    16     9    10    1
    17     9    37    1
    18    10    15   ar
    19    10    11   ar
    20    11    12   ar
    21    11    38    1
    22    12    13   ar
    23    12    39    1
    24    13    14   ar
    25    13    40    1
    26    14    15   ar
    27    14    41    1
    28    16    21   ar
    29    16    17   ar
    30    17    18   ar
    31    17    42    1
    32    18    19   ar
    33    18    43    1
    34    19    20   ar
    35    19    44    1
    36    20    21   ar
    37    20    45    1
    38    21    46    1
    39    22    23    1
    40    22    25    1
    41    22    24    1
    42    24    25    1
    43    24    47    1
    44    24    48    1
    45    25    32    1
    46    25    26    1
    47    26    27    1
    48    26    49    1
    49    26    50    1
    50    27    28    1
    51    27    51    1
    52    27    52    1
    53    28    29    2
    54    28    30    2
    55    28    31    1
    56    31    32    1
    57    31    53    1
    58    31    54    1
    59    32    55    1
    60    32    56    1
@<TRIPOS>SUBSTRUCTURE
     1 ZINC000547864253        1 TEMP              0 ****  ****    0 ROOT


##########                                Name:    ZINC000467104849
##########                DOCK_Rotatable_Bonds:                   6
##########                         Heavy_Atoms:                  29
##########                    Molecular_Weight:             421.896
##########                DOCK_Rotatable_Bonds:                   6
##########                       Formal_Charge:           0.0200002
##########                     HBond_Acceptors:                   7
##########                        HBond_Donors:                   0
##########                         Heavy_Atoms:                  29
##########                          Grid_Score:          -36.224907
##########                     Grid_vdw_energy:          -35.679775
##########                      Grid_es_energy:           -0.545133
##########           Internal_energy_repulsive:           65.007286

@<TRIPOS>MOLECULE
ZINC000467104849
 54 56 1 0 0
SMALL
USER_CHARGES


@<TRIPOS>ATOM
      1 C1         -9.4743   -3.1066   60.0923 C.3     1  ZINC000467104849    0.0200
      2 O2         -9.9863   -1.9546   59.4191 O.3     1  ZINC000467104849   -0.3000
      3 C3        -10.5340   -2.1506   58.1899 C.ar    1  ZINC000467104849    0.1000
      4 C4        -10.5866   -3.4244   57.6483 C.ar    1  ZINC000467104849   -0.1700
      5 C5        -11.1442   -3.6220   56.3985 C.ar    1  ZINC000467104849   -0.1200
      6 C6        -11.6495   -2.5505   55.6866 C.ar    1  ZINC000467104849   -0.0800
      7 C7        -12.2557   -2.7712   54.3247 C.3     1  ZINC000467104849   -0.0400
      8 C8        -13.2893   -1.6788   54.0433 C.3     1  ZINC000467104849   -0.1300
      9 C9        -11.1559   -2.7185   53.2624 C.3     1  ZINC000467104849   -0.1600
     10 C10       -12.9270   -4.1198   54.2863 C.2     1  ZINC000467104849    0.5300
     11 O11       -12.6208   -4.9257   53.4332 O.2     1  ZINC000467104849   -0.5300
     12 N12       -13.8679   -4.4304   55.2000 N.am    1  ZINC000467104849   -0.6100
     13 C13       -14.5372   -5.7408   55.1826 C.3     1  ZINC000467104849    0.0600
     14 C14       -14.4627   -6.3406   56.5914 C.3     1  ZINC000467104849    0.0500
     15 O15       -14.9570   -5.3876   57.5354 O.3     1  ZINC000467104849   -0.3700
     16 C16       -14.1948   -4.1799   57.6018 C.3     1  ZINC000467104849    0.1300
     17 H17       -13.1583   -4.4163   57.8428 H       1  ZINC000467104849    0.0800
     18 C18       -14.7671   -3.2814   58.6677 C.ar    1  ZINC000467104849   -0.0900
     19 C19       -16.1161   -2.9800   58.6655 C.ar    1  ZINC000467104849   -0.0500
     20 C20       -16.6429   -2.1560   59.6424 C.ar    1  ZINC000467104849   -0.1400
     21 C21       -15.8193   -1.6325   60.6238 C.ar    1  ZINC000467104849    0.1200
     22 F22       -16.3332   -0.8274   61.5792 F       1  ZINC000467104849   -0.1200
     23 C23       -14.4669   -1.9353   60.6257 C.ar    1  ZINC000467104849   -0.0800
     24 Cl24      -13.4317   -1.2799   61.8556 Cl      1  ZINC000467104849   -0.0400
     25 C25       -13.9435   -2.7638   59.6501 C.ar    1  ZINC000467104849   -0.0700
     26 C26       -14.2517   -3.4717   56.2482 C.3     1  ZINC000467104849    0.0900
     27 C27       -11.6006   -1.2761   56.2216 C.ar    1  ZINC000467104849   -0.1600
     28 C28       -11.0481   -1.0722   57.4755 C.ar    1  ZINC000467104849    0.1100
     29 O29       -10.9992    0.1803   58.0030 O.3     1  ZINC000467104849   -0.3000
     30 C30       -11.5447    1.2388   57.2131 C.3     1  ZINC000467104849    0.0200
     31 H31        -9.0673   -2.8112   61.0593 H       1  ZINC000467104849    0.1000
     32 H32       -10.2782   -3.8275   60.2413 H       1  ZINC000467104849    0.0600
     33 H33        -8.6871   -3.5596   59.4897 H       1  ZINC000467104849    0.0600
     34 H34       -10.1917   -4.2633   58.2022 H       1  ZINC000467104849    0.1400
     35 H35       -11.1846   -4.6156   55.9773 H       1  ZINC000467104849    0.1300
     36 H36       -12.7892   -0.7121   53.9834 H       1  ZINC000467104849    0.0700
     37 H37       -13.7907   -1.8876   53.0982 H       1  ZINC000467104849    0.0700
     38 H38       -14.0245   -1.6583   54.8479 H       1  ZINC000467104849    0.0700
     39 H39       -10.4680   -3.5510   53.4099 H       1  ZINC000467104849    0.0700
     40 H40       -11.6043   -2.7890   52.2714 H       1  ZINC000467104849    0.0700
     41 H41       -10.6120   -1.7779   53.3489 H       1  ZINC000467104849    0.0700
     42 H42       -15.5802   -5.6164   54.8914 H       1  ZINC000467104849    0.0800
     43 H43       -14.0343   -6.4006   54.4756 H       1  ZINC000467104849    0.1100
     44 H44       -15.0698   -7.2447   56.6347 H       1  ZINC000467104849    0.1100
     45 H45       -13.4272   -6.5848   56.8287 H       1  ZINC000467104849    0.0600
     46 H46       -16.7590   -3.3884   57.8998 H       1  ZINC000467104849    0.1500
     47 H47       -17.6969   -1.9204   59.6396 H       1  ZINC000467104849    0.1500
     48 H48       -12.8898   -3.0005   59.6512 H       1  ZINC000467104849    0.1500
     49 H49       -13.5618   -2.6277   56.2462 H       1  ZINC000467104849    0.1100
     50 H50       -15.2656   -3.1181   56.0611 H       1  ZINC000467104849    0.0800
     51 H51       -11.9962   -0.4406   55.6634 H       1  ZINC000467104849    0.1400
     52 H52       -11.0085    1.2987   56.2659 H       1  ZINC000467104849    0.0600
     53 H53       -12.5997    1.0427   57.0215 H       1  ZINC000467104849    0.0600
     54 H54       -11.4420    2.1823   57.7491 H       1  ZINC000467104849    0.1000
@<TRIPOS>BOND
     1     1     2    1
     2     1    31    1
     3     1    32    1
     4     1    33    1
     5     2     3    1
     6     3    28   ar
     7     3     4   ar
     8     4     5   ar
     9     4    34    1
    10     5     6   ar
    11     5    35    1
    12     6     7    1
    13     6    27   ar
    14     7     8    1
    15     7     9    1
    16     7    10    1
    17     8    36    1
    18     8    37    1
    19     8    38    1
    20     9    39    1
    21     9    40    1
    22     9    41    1
    23    10    11    2
    24    10    12   am
    25    12    26    1
    26    12    13    1
    27    13    14    1
    28    13    42    1
    29    13    43    1
    30    14    15    1
    31    14    44    1
    32    14    45    1
    33    15    16    1
    34    16    17    1
    35    16    18    1
    36    16    26    1
    37    18    25   ar
    38    18    19   ar
    39    19    20   ar
    40    19    46    1
    41    20    21   ar
    42    20    47    1
    43    21    22    1
    44    21    23   ar
    45    23    24    1
    46    23    25   ar
    47    25    48    1
    48    26    49    1
    49    26    50    1
    50    27    28   ar
    51    27    51    1
    52    28    29    1
    53    29    30    1
    54    30    52    1
    55    30    53    1
    56    30    54    1
@<TRIPOS>SUBSTRUCTURE
     1 ZINC000467104849        1 TEMP              0 ****  ****    0 ROOT


##########                                Name:    ZINC000186316242
##########                DOCK_Rotatable_Bonds:                   7
##########                         Heavy_Atoms:                  28
##########                    Molecular_Weight:             392.525
##########                DOCK_Rotatable_Bonds:                   7
##########                       Formal_Charge:         -0.00999981
##########                     HBond_Acceptors:                   6
##########                        HBond_Donors:                   0
##########                         Heavy_Atoms:                  28
##########                          Grid_Score:          -36.206051
##########                     Grid_vdw_energy:          -34.865299
##########                      Grid_es_energy:           -1.340753
##########           Internal_energy_repulsive:           27.122065

@<TRIPOS>MOLECULE
ZINC000186316242
 52 55 1 0 0
SMALL
USER_CHARGES


@<TRIPOS>ATOM
      1 C1        -14.4744   -1.6171   57.8796 C.3     1  ZINC000186316242   -0.1500
      2 C2        -13.8711   -3.0229   57.9089 C.3     1  ZINC000186316242    0.1000
      3 N3        -12.9918   -3.2013   56.7509 N.am    1  ZINC000186316242   -0.5900
      4 C4        -11.6673   -3.3741   56.9306 C.2     1  ZINC000186316242    0.5900
      5 O5        -10.9373   -3.5221   55.9692 O.2     1  ZINC000186316242   -0.5000
      6 C6        -11.1037   -3.3837   58.2920 C.2     1  ZINC000186316242    0.0100
      7 C7        -10.3950   -4.4385   58.7849 C.2     1  ZINC000186316242   -0.2100
      8 S8         -9.9086   -4.0828   60.3854 S.3     1  ZINC000186316242    0.2000
      9 C9        -10.6985   -2.5129   60.2970 C.2     1  ZINC000186316242    0.0700
     10 C10       -10.7320   -1.5121   61.3856 C.ar    1  ZINC000186316242    0.1900
     11 C11        -9.5534   -1.1713   62.0486 C.ar    1  ZINC000186316242   -0.1500
     12 C12        -9.6009   -0.2327   63.0649 C.ar    1  ZINC000186316242   -0.0700
     13 C13       -10.8256    0.3351   63.3855 C.ar    1  ZINC000186316242   -0.1600
     14 C14       -11.9560   -0.0491   62.6867 C.ar    1  ZINC000186316242    0.1100
     15 N15       -11.8833   -0.9408   61.7204 N.ar    1  ZINC000186316242   -0.4500
     16 N16       -11.2425   -2.3658   59.1280 N.2     1  ZINC000186316242   -0.3900
     17 C17       -13.5522   -3.1918   55.3973 C.3     1  ZINC000186316242    0.1400
     18 H18       -14.6050   -2.9112   55.4264 H       1  ZINC000186316242    0.1000
     19 C19       -13.3849   -4.5798   54.7375 C.3     1  ZINC000186316242   -0.1300
     20 C20       -13.0264   -4.2260   53.2723 C.3     1  ZINC000186316242    0.0400
     21 N21       -12.1611   -3.0272   53.4141 N.3     1  ZINC000186316242   -0.4900
     22 C22       -12.1082   -2.2647   52.1595 C.3     1  ZINC000186316242    0.0800
     23 C23       -11.0296   -1.2165   52.2539 C.ar    1  ZINC000186316242   -0.0700
     24 C24        -9.6991   -1.5914   52.2476 C.ar    1  ZINC000186316242   -0.1000
     25 C25        -8.7097   -0.6299   52.3341 C.ar    1  ZINC000186316242   -0.1200
     26 C26        -9.0507    0.7065   52.4264 C.ar    1  ZINC000186316242   -0.1200
     27 C27       -10.3813    1.0814   52.4318 C.ar    1  ZINC000186316242   -0.1200
     28 C28       -11.3706    0.1203   52.3410 C.ar    1  ZINC000186316242   -0.1100
     29 C29       -12.7644   -2.2196   54.4995 C.3     1  ZINC000186316242    0.0400
     30 H30       -15.1286   -1.4844   58.7412 H       1  ZINC000186316242    0.0700
     31 H31       -13.6743   -0.8777   57.9134 H       1  ZINC000186316242    0.0500
     32 H32       -15.0500   -1.4879   56.9630 H       1  ZINC000186316242    0.0400
     33 H33       -13.2955   -3.1521   58.8254 H       1  ZINC000186316242    0.1200
     34 H34       -14.6711   -3.7624   57.8750 H       1  ZINC000186316242    0.0700
     35 H35       -10.1760   -5.3514   58.2510 H       1  ZINC000186316242    0.1900
     36 H36        -8.6170   -1.6336   61.7733 H       1  ZINC000186316242    0.1400
     37 H37        -8.7047    0.0510   63.5966 H       1  ZINC000186316242    0.1400
     38 H38       -10.8958    1.0701   64.1738 H       1  ZINC000186316242    0.1400
     39 H39       -12.9107    0.3909   62.9345 H       1  ZINC000186316242    0.1600
     40 H40       -12.5748   -5.1361   55.2093 H       1  ZINC000186316242    0.0900
     41 H41       -14.3173   -5.1427   54.7813 H       1  ZINC000186316242    0.0700
     42 H42       -12.4782   -5.0426   52.8024 H       1  ZINC000186316242    0.0800
     43 H43       -13.9248   -3.9869   52.7034 H       1  ZINC000186316242    0.0400
     44 H44       -11.8874   -2.9400   51.3330 H       1  ZINC000186316242    0.0400
     45 H45       -13.0701   -1.7817   51.9870 H       1  ZINC000186316242    0.0800
     46 H46        -9.4326   -2.6355   52.1755 H       1  ZINC000186316242    0.1200
     47 H47        -7.6702   -0.9229   52.3299 H       1  ZINC000186316242    0.1200
     48 H48        -8.2778    1.4577   52.4947 H       1  ZINC000186316242    0.1200
     49 H49       -10.6478    2.1256   52.5042 H       1  ZINC000186316242    0.1200
     50 H50       -12.4102    0.4132   52.3451 H       1  ZINC000186316242    0.1200
     51 H51       -13.4371   -1.4732   54.0771 H       1  ZINC000186316242    0.0500
     52 H52       -11.9807   -1.7317   55.0789 H       1  ZINC000186316242    0.0800
@<TRIPOS>BOND
     1     1     2    1
     2     1    30    1
     3     1    31    1
     4     1    32    1
     5     2     3    1
     6     2    33    1
     7     2    34    1
     8     3     4   am
     9     3    17    1
    10     4     5    2
    11     4     6    1
    12     6    16    1
    13     6     7    2
    14     7     8    1
    15     7    35    1
    16     8     9    1
    17     9    10    1
    18     9    16    2
    19    10    15   ar
    20    10    11   ar
    21    11    12   ar
    22    11    36    1
    23    12    13   ar
    24    12    37    1
    25    13    14   ar
    26    13    38    1
    27    14    15   ar
    28    14    39    1
    29    17    18    1
    30    17    29    1
    31    17    19    1
    32    19    20    1
    33    19    40    1
    34    19    41    1
    35    20    21    1
    36    20    42    1
    37    20    43    1
    38    21    22    1
    39    21    29    1
    40    22    23    1
    41    22    44    1
    42    22    45    1
    43    23    28   ar
    44    23    24   ar
    45    24    25   ar
    46    24    46    1
    47    25    26   ar
    48    25    47    1
    49    26    27   ar
    50    26    48    1
    51    27    28   ar
    52    27    49    1
    53    28    50    1
    54    29    51    1
    55    29    52    1
@<TRIPOS>SUBSTRUCTURE
     1 ZINC000186316242        1 TEMP              0 ****  ****    0 ROOT


##########                                Name:     oleObject70.pdb
##########                DOCK_Rotatable_Bonds:                   9
##########                         Heavy_Atoms:                  35
##########                    Molecular_Weight:             504.458
##########                DOCK_Rotatable_Bonds:                   9
##########                       Formal_Charge:          0.00010002
##########                     HBond_Acceptors:                   6
##########                        HBond_Donors:                   2
##########                         Heavy_Atoms:                  35
##########                          Grid_Score:          -36.203888
##########                     Grid_vdw_energy:          -36.770035
##########                      Grid_es_energy:            0.566147
##########           Internal_energy_repulsive:          146.004669

@<TRIPOS>MOLECULE
oleObject70.pdb
 62 65 1 0 0
SMALL
NO_CHARGES


@<TRIPOS>ATOM
      1 C           0.4917    3.3431   54.0226 C.ar    1  UNL        -0.0620
      2 C          -0.7001    3.9863   54.3857 C.ar    1  UNL        -0.0590
      3 C          -1.7133    4.2157   53.4347 C.ar    1  UNL        -0.0456
      4 C          -1.5322    3.7828   52.0962 C.ar    1  UNL        -0.0187
      5 C          -0.3200    3.1502   51.7435 C.ar    1  UNL        -0.0565
      6 C           0.6833    2.9290   52.6984 C.ar    1  UNL        -0.0619
      7 C          -2.6170    4.0158   51.0295 C.3     1  UNL         0.0909
      8 C          -2.1512    3.7293   49.5915 C.ar    1  UNL         0.0681
      9 C          -1.3386    4.6431   48.8734 C.ar    1  UNL        -0.0272
     10 C          -0.9574    4.3108   47.5596 C.ar    1  UNL        -0.0559
     11 C          -1.3867    3.0945   47.0096 C.ar    1  UNL        -0.0435
     12 C          -2.1825    2.2466   47.7936 C.ar    1  UNL         0.0272
     13 N          -2.5519    2.5550   49.0505 N.ar    1  UNL        -0.2587
     14 C          -0.8732    5.9658   49.4722 C.3     1  UNL        -0.0379
     15 N          -3.9173    3.4095   51.3916 N.am    1  UNL        -0.2987
     16 C          -4.4102    2.1841   50.9606 C.2     1  UNL         0.2437
     17 O          -3.7860    1.4496   50.2142 O.2     1  UNL        -0.2719
     18 C          -5.7733    1.7933   51.4797 C.ar    1  UNL         0.0371
     19 C          -6.4600    2.5650   52.4440 C.ar    1  UNL        -0.0494
     20 C          -7.7280    2.1727   52.9039 C.ar    1  UNL        -0.0570
     21 C          -8.3341    1.0049   52.4120 C.ar    1  UNL        -0.0341
     22 C          -7.6595    0.2331   51.4517 C.ar    1  UNL        -0.0570
     23 C          -6.3914    0.6233   50.9915 C.ar    1  UNL        -0.0494
     24 C          -9.7088    0.5876   52.9065 C.3     1  UNL         0.0208
     25 N          -9.6130   -0.2493   54.1092 N.4     1  UNL        -0.3086
     26 C         -10.9032   -0.4883   54.7694 C.3     1  UNL         0.0223
     27 C         -10.7164   -1.0327   56.1792 C.ar    1  UNL        -0.0154
     28 C         -10.3348   -0.1555   57.2124 C.ar    1  UNL        -0.0548
     29 C         -10.1601   -0.6302   58.5226 C.ar    1  UNL        -0.0431
     30 C         -10.3681   -1.9883   58.8090 C.ar    1  UNL         0.0421
     31 C         -10.7519   -2.8709   57.7873 C.ar    1  UNL        -0.0245
     32 C         -10.9270   -2.3973   56.4758 C.ar    1  UNL         0.0465
     33 CL        -11.4161   -3.5374   55.2354 Cl      1  UNL        -0.0839
     34 CL        -10.1517   -2.5812   60.4420 Cl      1  UNL        -0.0843
     35 C          -2.9767    4.9451   53.8812 C.3     1  UNL        -0.0394
     36 H           1.2682    3.1756   54.7634 H       1  UNL         0.0623
     37 H          -0.8326    4.3138   55.4131 H       1  UNL         0.0626
     38 H          -0.1421    2.8342   50.7211 H       1  UNL         0.0627
     39 H           1.6099    2.4416   52.4093 H       1  UNL         0.0623
     40 H          -2.8276    5.0891   51.0534 H       1  UNL         0.0624
     41 H          -0.3401    4.9846   46.9723 H       1  UNL         0.0627
     42 H          -1.1094    2.8141   45.9978 H       1  UNL         0.0639
     43 H          -2.5373    1.2930   47.4049 H       1  UNL         0.0840
     44 H          -1.7225    6.6319   49.6669 H       1  UNL         0.0280
     45 H          -0.1918    6.4966   48.7957 H       1  UNL         0.0280
     46 H          -0.3368    5.8095   50.4158 H       1  UNL         0.0280
     47 H          -4.5106    3.9446   52.0103 H       1  UNL         0.1508
     48 H          -6.0245    3.4731   52.8479 H       1  UNL         0.0631
     49 H          -8.2431    2.7806   53.6427 H       1  UNL         0.0626
     50 H          -8.1186   -0.6697   51.0582 H       1  UNL         0.0626
     51 H          -5.8902    0.0099   50.2478 H       1  UNL         0.0631
     52 H         -10.2255    0.0361   52.1102 H       1  UNL         0.0479
     53 H         -10.3008    1.4857   53.1258 H       1  UNL         0.0479
     54 H          -8.9763    0.1922   54.7723 H       1  UNL         0.1229
     55 H         -11.4893   -1.2047   54.1794 H       1  UNL         0.0480
     56 H         -11.4803    0.4444   54.8131 H       1  UNL         0.0480
     57 H         -10.1762    0.8982   57.0002 H       1  UNL         0.0627
     58 H          -9.8659    0.0542   59.3133 H       1  UNL         0.0639
     59 H         -10.9156   -3.9210   58.0116 H       1  UNL         0.0654
     60 H          -2.8807    5.3346   54.9025 H       1  UNL         0.0280
     61 H          -3.8448    4.2746   53.8664 H       1  UNL         0.0280
     62 H          -3.1932    5.8002   53.2287 H       1  UNL         0.0280
@<TRIPOS>BOND
     1     1     2   ar
     2     1     6   ar
     3     1    36    1
     4     2     3   ar
     5     2    37    1
     6     3     4   ar
     7     3    35    1
     8     4     5   ar
     9     4     7    1
    10     5     6   ar
    11     5    38    1
    12     6    39    1
    13     7     8    1
    14     7    15    1
    15     7    40    1
    16     8     9   ar
    17     8    13   ar
    18     9    10   ar
    19     9    14    1
    20    10    11   ar
    21    10    41    1
    22    11    12   ar
    23    11    42    1
    24    12    13   ar
    25    12    43    1
    26    14    44    1
    27    14    45    1
    28    14    46    1
    29    15    16   am
    30    15    47    1
    31    16    17    2
    32    16    18    1
    33    18    19   ar
    34    18    23   ar
    35    19    20   ar
    36    19    48    1
    37    20    21   ar
    38    20    49    1
    39    21    22   ar
    40    21    24    1
    41    22    23   ar
    42    22    50    1
    43    23    51    1
    44    24    25    1
    45    24    52    1
    46    24    53    1
    47    25    26    1
    48    25    54    1
    49    26    27    1
    50    26    55    1
    51    26    56    1
    52    27    28   ar
    53    27    32   ar
    54    28    29   ar
    55    28    57    1
    56    29    30   ar
    57    29    58    1
    58    30    31   ar
    59    30    34    1
    60    31    32   ar
    61    31    59    1
    62    32    33    1
    63    35    60    1
    64    35    61    1
    65    35    62    1
@<TRIPOS>SUBSTRUCTURE
     1 UNL         1 TEMP              0 ****  ****    0 ROOT


##########                                Name:    ZINC000550217006
##########                DOCK_Rotatable_Bonds:                   7
##########                         Heavy_Atoms:                  27
##########                    Molecular_Weight:             367.404
##########                DOCK_Rotatable_Bonds:                   7
##########                       Formal_Charge:          0.00999951
##########                     HBond_Acceptors:                   7
##########                        HBond_Donors:                   3
##########                         Heavy_Atoms:                  27
##########                          Grid_Score:          -36.183899
##########                     Grid_vdw_energy:          -35.430847
##########                      Grid_es_energy:           -0.753050
##########           Internal_energy_repulsive:            7.509433

@<TRIPOS>MOLECULE
ZINC000550217006
 48 50 1 0 0
SMALL
USER_CHARGES


@<TRIPOS>ATOM
      1 C1         -5.7622    1.2420   50.8846 C.3     1  ZINC000550217006   -0.1500
      2 C2         -7.2600    1.3553   50.5934 C.3     1  ZINC000550217006    0.0500
      3 O3         -7.8167    2.4191   51.3682 O.3     1  ZINC000550217006   -0.3100
      4 C4         -9.1642    2.5858   51.3091 C.ar    1  ZINC000550217006    0.1400
      5 C5         -9.7112    3.5196   50.4414 C.ar    1  ZINC000550217006   -0.2100
      6 C6        -11.0815    3.6868   50.3827 C.ar    1  ZINC000550217006   -0.0800
      7 C7        -11.9071    2.9248   51.1883 C.ar    1  ZINC000550217006   -0.1600
      8 C8        -11.3642    1.9935   52.0545 C.ar    1  ZINC000550217006   -0.0700
      9 C9         -9.9954    1.8182   52.1124 C.ar    1  ZINC000550217006   -0.1200
     10 C10        -9.4043    0.8028   53.0561 C.3     1  ZINC000550217006   -0.0800
     11 C11        -9.6568   -0.6053   52.5135 C.3     1  ZINC000550217006    0.1300
     12 N12       -10.5055   -1.3450   53.4508 N.am    1  ZINC000550217006   -0.7200
     13 C13       -10.9239   -2.5888   53.1437 C.2     1  ZINC000550217006    0.5600
     14 O14       -10.5984   -3.0962   52.0885 O.2     1  ZINC000550217006   -0.5300
     15 C15       -11.7803   -3.3371   54.0918 C.ar    1  ZINC000550217006   -0.0800
     16 C16       -12.5110   -4.4434   53.6520 C.ar    1  ZINC000550217006   -0.1000
     17 C17       -13.3052   -5.1339   54.5343 C.ar    1  ZINC000550217006   -0.0500
     18 C18       -13.3927   -4.7416   55.8804 C.ar    1  ZINC000550217006   -0.1300
     19 C19       -12.6622   -3.6398   56.3240 C.ar    1  ZINC000550217006    0.1800
     20 C20       -11.8548   -2.9441   55.4222 C.ar    1  ZINC000550217006   -0.0900
     21 N21       -12.6796   -3.1903   57.6333 N.am    1  ZINC000550217006   -0.6600
     22 C22       -13.7548   -3.1114   58.4113 C.2     1  ZINC000550217006    0.5100
     23 O23       -13.6401   -2.6550   59.5290 O.2     1  ZINC000550217006   -0.5100
     24 C24       -15.1093   -3.5711   57.9460 C.3     1  ZINC000550217006    0.0900
     25 N25       -15.0597   -5.0119   57.6976 N.am    1  ZINC000550217006   -0.7100
     26 C26       -14.2683   -5.5297   56.7598 C.2     1  ZINC000550217006    0.5600
     27 O27       -14.2702   -6.7373   56.6214 O.2     1  ZINC000550217006   -0.5200
     28 H28        -5.6127    1.0363   51.9445 H       1  ZINC000550217006    0.0700
     29 H29        -5.3376    0.4306   50.2935 H       1  ZINC000550217006    0.0800
     30 H30        -5.2694    2.1784   50.6232 H       1  ZINC000550217006    0.0700
     31 H31        -7.4095    1.5611   49.5334 H       1  ZINC000550217006    0.0600
     32 H32        -7.7529    0.4189   50.8548 H       1  ZINC000550217006    0.0600
     33 H33        -9.0666    4.1156   49.8124 H       1  ZINC000550217006    0.1300
     34 H34       -11.5079    4.4137   49.7074 H       1  ZINC000550217006    0.1300
     35 H35       -12.9780    3.0573   51.1413 H       1  ZINC000550217006    0.1300
     36 H36       -12.0112    1.3996   52.6830 H       1  ZINC000550217006    0.1300
     37 H37        -8.3310    0.9710   53.1449 H       1  ZINC000550217006    0.0800
     38 H38        -9.8702    0.9034   54.0364 H       1  ZINC000550217006    0.0800
     39 H39       -10.1558   -0.5381   51.5468 H       1  ZINC000550217006    0.0700
     40 H40        -8.7060   -1.1254   52.3961 H       1  ZINC000550217006    0.0700
     41 H41       -10.7664   -0.9396   54.2926 H       1  ZINC000550217006    0.4000
     42 H42       -12.4518   -4.7551   52.6196 H       1  ZINC000550217006    0.1400
     43 H43       -13.8689   -5.9880   54.1894 H       1  ZINC000550217006    0.1500
     44 H44       -11.2894   -2.0882   55.7601 H       1  ZINC000550217006    0.1500
     45 H45       -11.8340   -2.9090   58.0164 H       1  ZINC000550217006    0.4200
     46 H46       -15.8514   -3.3585   58.7156 H       1  ZINC000550217006    0.1300
     47 H47       -15.3754   -3.0508   57.0259 H       1  ZINC000550217006    0.1000
     48 H48       -15.6155   -5.6038   58.2283 H       1  ZINC000550217006    0.4200
@<TRIPOS>BOND
     1     1     2    1
     2     1    28    1
     3     1    29    1
     4     1    30    1
     5     2     3    1
     6     2    31    1
     7     2    32    1
     8     3     4    1
     9     4     9   ar
    10     4     5   ar
    11     5     6   ar
    12     5    33    1
    13     6     7   ar
    14     6    34    1
    15     7     8   ar
    16     7    35    1
    17     8     9   ar
    18     8    36    1
    19     9    10    1
    20    10    11    1
    21    10    37    1
    22    10    38    1
    23    11    12    1
    24    11    39    1
    25    11    40    1
    26    12    13   am
    27    12    41    1
    28    13    14    2
    29    13    15    1
    30    15    20   ar
    31    15    16   ar
    32    16    17   ar
    33    16    42    1
    34    17    18   ar
    35    17    43    1
    36    18    26    1
    37    18    19   ar
    38    19    20   ar
    39    19    21    1
    40    20    44    1
    41    21    22   am
    42    21    45    1
    43    22    23    2
    44    22    24    1
    45    24    25    1
    46    24    46    1
    47    24    47    1
    48    25    26   am
    49    25    48    1
    50    26    27    2
@<TRIPOS>SUBSTRUCTURE
     1 ZINC000550217006        1 TEMP              0 ****  ****    0 ROOT


##########                                Name:    ZINC001342629575
##########                DOCK_Rotatable_Bonds:                   9
##########                         Heavy_Atoms:                  29
##########                    Molecular_Weight:             396.533
##########                DOCK_Rotatable_Bonds:                   9
##########                       Formal_Charge:         -0.00999976
##########                     HBond_Acceptors:                   6
##########                        HBond_Donors:                   0
##########                         Heavy_Atoms:                  29
##########                          Grid_Score:          -36.182186
##########                     Grid_vdw_energy:          -35.463470
##########                      Grid_es_energy:           -0.718717
##########           Internal_energy_repulsive:           20.140236

@<TRIPOS>MOLECULE
ZINC001342629575
 61 64 1 0 0
SMALL
USER_CHARGES


@<TRIPOS>ATOM
      1 C1         -9.0891    1.1318   55.5930 C.2     1  ZINC001342629575   -0.1800
      2 C2        -10.0042    0.8762   56.4948 C.2     1  ZINC001342629575   -0.1600
      3 C3         -9.5970    0.4580   57.8841 C.3     1  ZINC001342629575   -0.0800
      4 C4        -10.7947   -0.1708   58.5990 C.3     1  ZINC001342629575    0.0500
      5 H5        -11.6320    0.5269   58.5876 H       1  ZINC001342629575    0.0900
      6 C6        -11.1904   -1.4421   57.8932 C.2     1  ZINC001342629575    0.2000
      7 N7        -10.3826   -2.3006   57.3381 N.2     1  ZINC001342629575   -0.2700
      8 N8        -11.0538   -3.2702   56.8266 N.2     1  ZINC001342629575   -0.3000
      9 C9        -12.3362   -3.0805   57.0296 C.2     1  ZINC001342629575    0.3400
     10 N10       -13.3666   -3.9134   56.6231 N.3     1  ZINC001342629575   -0.4300
     11 C11       -13.2873   -5.2304   57.3060 C.3     1  ZINC001342629575    0.0400
     12 C12       -14.0993   -6.1853   56.4048 C.3     1  ZINC001342629575   -0.1200
     13 C13       -14.0728   -5.5356   55.0058 C.3     1  ZINC001342629575   -0.1200
     14 C14       -13.2469   -4.2429   55.1795 C.3     1  ZINC001342629575    0.0700
     15 H15       -12.2043   -4.4194   54.9150 H       1  ZINC001342629575    0.0900
     16 C16       -13.8305   -3.1177   54.3226 C.3     1  ZINC001342629575    0.1000
     17 H17       -14.8543   -2.9094   54.6335 H       1  ZINC001342629575    0.0700
     18 C18       -13.8081   -3.5272   52.8344 C.3     1  ZINC001342629575   -0.1400
     19 C19       -13.4138   -2.1989   52.1329 C.3     1  ZINC001342629575   -0.1600
     20 C20       -12.4634   -1.5797   53.1886 C.3     1  ZINC001342629575    0.0500
     21 O21       -13.0312   -1.9372   54.4608 O.3     1  ZINC001342629575   -0.3700
     22 N22       -12.4632   -1.9113   57.7215 N.pl3   1  ZINC001342629575   -0.4600
     23 C23       -13.7061   -1.2838   58.1773 C.3     1  ZINC001342629575    0.1100
     24 C24       -14.0516   -1.7946   59.5775 C.3     1  ZINC001342629575    0.0500
     25 O25       -14.6165   -3.1036   59.4811 O.3     1  ZINC001342629575   -0.3800
     26 C26       -15.9507   -3.1246   58.9695 C.3     1  ZINC001342629575    0.0300
     27 C27       -10.4210   -0.4835   60.0251 C.ar    1  ZINC001342629575   -0.0900
     28 C28        -9.6360   -1.5856   60.3082 C.ar    1  ZINC001342629575   -0.0900
     29 C29        -9.2932   -1.8724   61.6162 C.ar    1  ZINC001342629575   -0.1200
     30 C30        -9.7351   -1.0570   62.6413 C.ar    1  ZINC001342629575   -0.1200
     31 C31       -10.5194    0.0455   62.3582 C.ar    1  ZINC001342629575   -0.1200
     32 C32       -10.8586    0.3348   61.0496 C.ar    1  ZINC001342629575   -0.1100
     33 H33        -9.3809    1.4314   54.5973 H       1  ZINC001342629575    0.1000
     34 H34        -8.0426    1.0472   55.8465 H       1  ZINC001342629575    0.1000
     35 H35       -11.0506    0.9650   56.2426 H       1  ZINC001342629575    0.1000
     36 H36        -8.7879   -0.2697   57.8221 H       1  ZINC001342629575    0.0900
     37 H37        -9.2584    1.3311   58.4418 H       1  ZINC001342629575    0.0800
     38 H38       -12.2511   -5.5614   57.3742 H       1  ZINC001342629575    0.0600
     39 H39       -13.7347   -5.1717   58.2981 H       1  ZINC001342629575    0.0800
     40 H40       -13.6296   -7.1683   56.3746 H       1  ZINC001342629575    0.0800
     41 H41       -15.1248   -6.2657   56.7653 H       1  ZINC001342629575    0.0800
     42 H42       -13.5899   -6.1999   54.2890 H       1  ZINC001342629575    0.0800
     43 H43       -15.0851   -5.2973   54.6798 H       1  ZINC001342629575    0.0800
     44 H44       -13.0584   -4.2979   52.6553 H       1  ZINC001342629575    0.0900
     45 H45       -14.7937   -3.8601   52.5087 H       1  ZINC001342629575    0.0800
     46 H46       -12.8896   -2.3897   51.1964 H       1  ZINC001342629575    0.0800
     47 H47       -14.2864   -1.5661   51.9707 H       1  ZINC001342629575    0.0800
     48 H48       -11.4624   -1.9994   53.0889 H       1  ZINC001342629575    0.0600
     49 H49       -12.4325   -0.4956   53.0802 H       1  ZINC001342629575    0.0900
     50 H50       -13.5773   -0.2019   58.2067 H       1  ZINC001342629575    0.1000
     51 H51       -14.5134   -1.5351   57.4894 H       1  ZINC001342629575    0.1100
     52 H52       -13.1465   -1.8333   60.1837 H       1  ZINC001342629575    0.0600
     53 H53       -14.7719   -1.1214   60.0424 H       1  ZINC001342629575    0.0600
     54 H54       -16.3075   -4.1537   58.9272 H       1  ZINC001342629575    0.0900
     55 H55       -16.5996   -2.5416   59.6229 H       1  ZINC001342629575    0.0400
     56 H56       -15.9626   -2.6946   57.9679 H       1  ZINC001342629575    0.0400
     57 H57        -9.2907   -2.2226   59.5074 H       1  ZINC001342629575    0.1300
     58 H58        -8.6804   -2.7338   61.8374 H       1  ZINC001342629575    0.1200
     59 H59        -9.4679   -1.2815   63.6633 H       1  ZINC001342629575    0.1200
     60 H60       -10.8649    0.6824   63.1590 H       1  ZINC001342629575    0.1200
     61 H61       -11.4713    1.1962   60.8285 H       1  ZINC001342629575    0.1200
@<TRIPOS>BOND
     1     1     2    2
     2     1    33    1
     3     1    34    1
     4     2     3    1
     5     2    35    1
     6     3     4    1
     7     3    36    1
     8     3    37    1
     9     4     5    1
    10     4     6    1
    11     4    27    1
    12     6    22    1
    13     6     7    2
    14     7     8    1
    15     8     9    2
    16     9    10    1
    17     9    22    1
    18    10    14    1
    19    10    11    1
    20    11    12    1
    21    11    38    1
    22    11    39    1
    23    12    13    1
    24    12    40    1
    25    12    41    1
    26    13    14    1
    27    13    42    1
    28    13    43    1
    29    14    15    1
    30    14    16    1
    31    16    17    1
    32    16    21    1
    33    16    18    1
    34    18    19    1
    35    18    44    1
    36    18    45    1
    37    19    20    1
    38    19    46    1
    39    19    47    1
    40    20    21    1
    41    20    48    1
    42    20    49    1
    43    22    23    1
    44    23    24    1
    45    23    50    1
    46    23    51    1
    47    24    25    1
    48    24    52    1
    49    24    53    1
    50    25    26    1
    51    26    54    1
    52    26    55    1
    53    26    56    1
    54    27    32   ar
    55    27    28   ar
    56    28    29   ar
    57    28    57    1
    58    29    30   ar
    59    29    58    1
    60    30    31   ar
    61    30    59    1
    62    31    32   ar
    63    31    60    1
    64    32    61    1
@<TRIPOS>SUBSTRUCTURE
     1 ZINC001342629575        1 TEMP              0 ****  ****    0 ROOT


##########                                Name:    ZINC001500042809
##########                DOCK_Rotatable_Bonds:                   9
##########                         Heavy_Atoms:                  24
##########                    Molecular_Weight:              346.45
##########                DOCK_Rotatable_Bonds:                   9
##########                       Formal_Charge:           0.0200001
##########                     HBond_Acceptors:                   6
##########                        HBond_Donors:                   2
##########                         Heavy_Atoms:                  24
##########                          Grid_Score:          -36.164780
##########                     Grid_vdw_energy:          -36.400055
##########                      Grid_es_energy:            0.235274
##########           Internal_energy_repulsive:           16.537308

@<TRIPOS>MOLECULE
ZINC001500042809
 46 47 1 0 0
SMALL
USER_CHARGES


@<TRIPOS>ATOM
      1 C1         -9.6163   -1.0037   62.8947 C.3     1  ZINC001500042809    0.0200
      2 O2         -9.1783   -2.0706   62.0509 O.3     1  ZINC001500042809   -0.3100
      3 C3         -9.9019   -2.3037   60.9267 C.ar    1  ZINC001500042809    0.1600
      4 C4         -9.6303   -3.4220   60.1470 C.ar    1  ZINC001500042809   -0.1600
      5 C5        -10.3620   -3.6617   59.0053 C.ar    1  ZINC001500042809   -0.0200
      6 C6        -11.3789   -2.7793   58.6313 C.ar    1  ZINC001500042809   -0.1800
      7 C7        -12.1656   -3.0327   57.4084 C.2     1  ZINC001500042809    0.5600
      8 O8        -13.3563   -2.7878   57.3897 O.2     1  ZINC001500042809   -0.5300
      9 N9        -11.5638   -3.5356   56.3122 N.am    1  ZINC001500042809   -0.7300
     10 C10       -12.3442   -3.7854   55.0977 C.3     1  ZINC001500042809    0.1300
     11 C11       -11.5070   -3.4219   53.8698 C.3     1  ZINC001500042809   -0.1200
     12 H12       -10.4749   -3.7347   54.0281 H       1  ZINC001500042809    0.0900
     13 C13       -12.0722   -4.1327   52.6385 C.3     1  ZINC001500042809   -0.1500
     14 C14       -11.5533   -1.9083   53.6510 C.3     1  ZINC001500042809    0.1300
     15 N15       -10.4120   -1.4986   52.8290 N.am    1  ZINC001500042809   -0.7300
     16 C16        -9.9209   -0.2479   52.9332 C.2     1  ZINC001500042809    0.5900
     17 O17       -10.4246    0.5408   53.7113 O.2     1  ZINC001500042809   -0.5200
     18 C18        -8.7800    0.1626   52.1094 C.2     1  ZINC001500042809   -0.2800
     19 C19        -8.4679    1.4496   51.7724 C.2     1  ZINC001500042809   -0.0100
     20 C20        -9.2764    2.6415   52.2159 C.3     1  ZINC001500042809   -0.1100
     21 C21        -7.3426    1.5488   50.9889 C.2     1  ZINC001500042809   -0.1500
     22 C22        -6.7523    0.3848   50.6935 C.2     1  ZINC001500042809   -0.2200
     23 S23        -7.5897   -0.9215   51.4029 S.3     1  ZINC001500042809    0.1900
     24 C24       -11.6453   -1.6536   59.4150 C.ar    1  ZINC001500042809   -0.0400
     25 C25       -10.9123   -1.4234   60.5578 C.ar    1  ZINC001500042809   -0.2200
     26 H26        -9.5990   -0.0680   62.3359 H       1  ZINC001500042809    0.0600
     27 H27       -10.6318   -1.2042   63.2363 H       1  ZINC001500042809    0.0600
     28 H28        -8.9522   -0.9253   63.7555 H       1  ZINC001500042809    0.1000
     29 H29        -8.8443   -4.1034   60.4368 H       1  ZINC001500042809    0.1400
     30 H30       -10.1500   -4.5304   58.3998 H       1  ZINC001500042809    0.1400
     31 H31       -10.6141   -3.7320   56.3274 H       1  ZINC001500042809    0.4000
     32 H32       -13.2479   -3.1760   55.1148 H       1  ZINC001500042809    0.0800
     33 H33       -12.6176   -4.8395   55.0520 H       1  ZINC001500042809    0.0800
     34 H34       -12.0393   -5.2110   52.7944 H       1  ZINC001500042809    0.0600
     35 H35       -13.1043   -3.8199   52.4802 H       1  ZINC001500042809    0.0600
     36 H36       -11.4758   -3.8737   51.7637 H       1  ZINC001500042809    0.0600
     37 H37       -12.4806   -1.6428   53.1434 H       1  ZINC001500042809    0.0800
     38 H38       -11.5082   -1.4004   54.6144 H       1  ZINC001500042809    0.0800
     39 H39       -10.0097   -2.1276   52.2096 H       1  ZINC001500042809    0.4000
     40 H40        -8.8904    3.0089   53.1667 H       1  ZINC001500042809    0.0800
     41 H41        -9.2042    3.4290   51.4657 H       1  ZINC001500042809    0.0700
     42 H42       -10.3194    2.3486   52.3360 H       1  ZINC001500042809    0.0900
     43 H43        -6.9632    2.4968   50.6374 H       1  ZINC001500042809    0.1500
     44 H44        -5.8621    0.2860   50.0898 H       1  ZINC001500042809    0.1700
     45 H45       -12.4275   -0.9669   59.1267 H       1  ZINC001500042809    0.1300
     46 H46       -11.1198   -0.5553   61.1657 H       1  ZINC001500042809    0.1400
@<TRIPOS>BOND
     1     1     2    1
     2     1    26    1
     3     1    27    1
     4     1    28    1
     5     2     3    1
     6     3    25   ar
     7     3     4   ar
     8     4     5   ar
     9     4    29    1
    10     5     6   ar
    11     5    30    1
    12     6     7    1
    13     6    24   ar
    14     7     8    2
    15     7     9   am
    16     9    10    1
    17     9    31    1
    18    10    11    1
    19    10    32    1
    20    10    33    1
    21    11    12    1
    22    11    13    1
    23    11    14    1
    24    13    34    1
    25    13    35    1
    26    13    36    1
    27    14    15    1
    28    14    37    1
    29    14    38    1
    30    15    16   am
    31    15    39    1
    32    16    17    2
    33    16    18    1
    34    18    23    1
    35    18    19    2
    36    19    20    1
    37    19    21    1
    38    20    40    1
    39    20    41    1
    40    20    42    1
    41    21    22    2
    42    21    43    1
    43    22    23    1
    44    22    44    1
    45    24    25   ar
    46    24    45    1
    47    25    46    1
@<TRIPOS>SUBSTRUCTURE
     1 ZINC001500042809        1 TEMP              0 ****  ****    0 ROOT


##########                                Name:    ZINC001461256440
##########                DOCK_Rotatable_Bonds:                  13
##########                         Heavy_Atoms:                  26
##########                    Molecular_Weight:             367.445
##########                DOCK_Rotatable_Bonds:                  13
##########                       Formal_Charge:        -6.37025e-07
##########                     HBond_Acceptors:                   8
##########                        HBond_Donors:                   1
##########                         Heavy_Atoms:                  26
##########                          Grid_Score:          -36.147568
##########                     Grid_vdw_energy:          -35.910809
##########                      Grid_es_energy:           -0.236758
##########           Internal_energy_repulsive:           18.701946

@<TRIPOS>MOLECULE
ZINC001461256440
 55 55 1 0 0
SMALL
USER_CHARGES


@<TRIPOS>ATOM
      1 C1         -9.0218   -0.0027   52.4237 C.3     1  ZINC001461256440   -0.1500
      2 C2         -7.7737   -0.5363   51.7175 C.3     1  ZINC001461256440    0.0600
      3 O3         -6.7515    0.4947   51.6965 O.3     1  ZINC001461256440   -0.3600
      4 C4         -6.5482    1.1277   50.5305 C.2     1  ZINC001461256440    0.4400
      5 O5         -7.4823    1.6063   49.9320 O.2     1  ZINC001461256440   -0.4800
      6 C6         -5.1549    1.2412   49.9677 C.3     1  ZINC001461256440    0.1400
      7 N7         -4.3571    2.1313   50.8148 N.pl3   1  ZINC001461256440   -0.3800
      8 N8         -4.5103    2.3114   52.1953 N.2     1  ZINC001461256440   -0.2800
      9 C9         -3.6199    3.1810   52.5992 C.2     1  ZINC001461256440    0.1000
     10 C10        -3.4359    3.6626   54.0153 C.3     1  ZINC001461256440   -0.0700
     11 C11        -2.8681    3.5861   51.4929 C.2     1  ZINC001461256440   -0.2700
     12 C12        -3.3384    2.9202   50.4031 C.2     1  ZINC001461256440    0.3100
     13 N13        -2.8619    3.0365   49.0974 N.am    1  ZINC001461256440   -0.6500
     14 C14        -1.9927    2.1271   48.6136 C.2     1  ZINC001461256440    0.5200
     15 O15        -1.6258    1.2068   49.3134 O.2     1  ZINC001461256440   -0.5000
     16 C16        -1.4766    2.2538   47.2036 C.3     1  ZINC001461256440   -0.1300
     17 C17        -2.1755    1.2269   46.3104 C.3     1  ZINC001461256440   -0.1100
     18 C18        -1.1454    0.5617   45.3955 C.3     1  ZINC001461256440   -0.1100
     19 C19        -0.7047    1.5538   44.3173 C.3     1  ZINC001461256440   -0.1200
     20 C20         0.4836    0.9962   43.5770 C.2     1  ZINC001461256440    0.4600
     21 O21         1.5937    1.1167   44.0383 O.2     1  ZINC001461256440   -0.5000
     22 O22         0.3086    0.3655   42.4050 O.3     1  ZINC001461256440   -0.3500
     23 C23         1.1965    0.7367   41.3177 C.3     1  ZINC001461256440    0.1200
     24 C24         1.4144    2.2511   41.3316 C.3     1  ZINC001461256440   -0.1800
     25 C25         2.5404    0.0264   41.4916 C.3     1  ZINC001461256440   -0.1400
     26 C26         0.5701    0.3238   39.9843 C.3     1  ZINC001461256440   -0.1800
     27 H27        -9.7892   -0.7767   52.4393 H       1  ZINC001461256440    0.0800
     28 H28        -8.7686    0.2787   53.4457 H       1  ZINC001461256440    0.0700
     29 H29        -9.3968    0.8699   51.8888 H       1  ZINC001461256440    0.0700
     30 H30        -7.3988   -1.4089   52.2523 H       1  ZINC001461256440    0.0700
     31 H31        -8.0270   -0.8177   50.6953 H       1  ZINC001461256440    0.0700
     32 H32        -4.6925    0.2545   49.9406 H       1  ZINC001461256440    0.1300
     33 H33        -5.2030    1.6478   48.9576 H       1  ZINC001461256440    0.1400
     34 H34        -2.7254    3.0157   54.5297 H       1  ZINC001461256440    0.0800
     35 H35        -3.0559    4.6841   54.0051 H       1  ZINC001461256440    0.0800
     36 H36        -4.3937    3.6364   54.5353 H       1  ZINC001461256440    0.0700
     37 H37        -2.0561    4.2982   51.5019 H       1  ZINC001461256440    0.1800
     38 H38        -3.1563    3.7718   48.5374 H       1  ZINC001461256440    0.4100
     39 H39        -1.6801    3.2578   46.8309 H       1  ZINC001461256440    0.1000
     40 H40        -0.4017    2.0732   47.1925 H       1  ZINC001461256440    0.1000
     41 H41        -2.6522    0.4692   46.9323 H       1  ZINC001461256440    0.0800
     42 H42        -2.9307    1.7270   45.7041 H       1  ZINC001461256440    0.0800
     43 H43        -0.2802    0.2565   45.9839 H       1  ZINC001461256440    0.0700
     44 H44        -1.5907   -0.3140   44.9232 H       1  ZINC001461256440    0.0700
     45 H45        -1.5243    1.7180   43.6177 H       1  ZINC001461256440    0.1100
     46 H46        -0.4307    2.4998   44.7843 H       1  ZINC001461256440    0.1100
     47 H47         1.8606    2.5452   42.2816 H       1  ZINC001461256440    0.0600
     48 H48         2.0809    2.5297   40.5153 H       1  ZINC001461256440    0.0700
     49 H49         0.4570    2.7571   41.2078 H       1  ZINC001461256440    0.0800
     50 H50         2.3852   -1.0524   41.4817 H       1  ZINC001461256440    0.0700
     51 H51         3.2068    0.3051   40.6754 H       1  ZINC001461256440    0.0800
     52 H52         2.9866    0.3207   42.4416 H       1  ZINC001461256440    0.0700
     53 H53        -0.3873    0.8299   39.8604 H       1  ZINC001461256440    0.0800
     54 H54         1.2366    0.6024   39.1681 H       1  ZINC001461256440    0.0700
     55 H55         0.4149   -0.7550   39.9744 H       1  ZINC001461256440    0.0600
@<TRIPOS>BOND
     1     1     2    1
     2     1    27    1
     3     1    28    1
     4     1    29    1
     5     2     3    1
     6     2    30    1
     7     2    31    1
     8     3     4    1
     9     4     5    2
    10     4     6    1
    11     6     7    1
    12     6    32    1
    13     6    33    1
    14     7    12    1
    15     7     8    1
    16     8     9    2
    17     9    10    1
    18     9    11    1
    19    10    34    1
    20    10    35    1
    21    10    36    1
    22    11    12    2
    23    11    37    1
    24    12    13    1
    25    13    14   am
    26    13    38    1
    27    14    15    2
    28    14    16    1
    29    16    17    1
    30    16    39    1
    31    16    40    1
    32    17    18    1
    33    17    41    1
    34    17    42    1
    35    18    19    1
    36    18    43    1
    37    18    44    1
    38    19    20    1
    39    19    45    1
    40    19    46    1
    41    20    21    2
    42    20    22    1
    43    22    23    1
    44    23    24    1
    45    23    25    1
    46    23    26    1
    47    24    47    1
    48    24    48    1
    49    24    49    1
    50    25    50    1
    51    25    51    1
    52    25    52    1
    53    26    53    1
    54    26    54    1
    55    26    55    1
@<TRIPOS>SUBSTRUCTURE
     1 ZINC001461256440        1 TEMP              0 ****  ****    0 ROOT


##########                                Name:    ZINC001574157642
##########                DOCK_Rotatable_Bonds:                   9
##########                         Heavy_Atoms:                  28
##########                    Molecular_Weight:             387.445
##########                DOCK_Rotatable_Bonds:                   9
##########                       Formal_Charge:          -0.0400004
##########                     HBond_Acceptors:                  11
##########                        HBond_Donors:                   4
##########                         Heavy_Atoms:                  28
##########                          Grid_Score:          -36.123737
##########                     Grid_vdw_energy:          -36.149323
##########                      Grid_es_energy:            0.025583
##########           Internal_energy_repulsive:           15.885369

@<TRIPOS>MOLECULE
ZINC001574157642
 53 55 1 0 0
SMALL
USER_CHARGES


@<TRIPOS>ATOM
      1 C1        -16.6783   -2.4111   57.2938 C.3     1  ZINC001574157642   -0.1400
      2 C2        -15.4725   -2.6947   58.1919 C.3     1  ZINC001574157642   -0.0900
      3 C3        -15.9547   -3.2578   59.5303 C.3     1  ZINC001574157642   -0.1500
      4 C4        -14.5571   -3.7134   57.5101 C.3     1  ZINC001574157642   -0.1300
      5 C5        -13.1318   -3.1600   57.4523 C.3     1  ZINC001574157642    0.1300
      6 H6        -13.1376   -2.1930   56.9493 H       1  ZINC001574157642    0.1100
      7 C7        -12.2382   -4.1319   56.6789 C.3     1  ZINC001574157642    0.1100
      8 N8        -11.5015   -3.4007   55.6452 N.pl3   1  ZINC001574157642   -0.7100
      9 C9        -12.1209   -3.0855   54.4422 C.ar    1  ZINC001574157642    0.3700
     10 C10       -13.3882   -3.5913   54.1576 C.ar    1  ZINC001574157642    0.0000
     11 N11       -13.9763   -3.2931   53.0162 N.ar    1  ZINC001574157642   -0.3700
     12 C12       -13.3604   -2.5090   52.1358 C.ar    1  ZINC001574157642    0.0800
     13 C13       -14.0223   -2.1727   50.8510 C.2     1  ZINC001574157642    0.2300
     14 N14       -13.5228   -1.4387   49.8762 N.2     1  ZINC001574157642   -0.2700
     15 N15       -14.4018   -1.3817   48.9355 N.pl3   1  ZINC001574157642   -0.2300
     16 N16       -15.4421   -2.0557   49.2830 N.2     1  ZINC001574157642   -0.0400
     17 N17       -15.2423   -2.5608   50.4529 N.2     1  ZINC001574157642   -0.2600
     18 C18       -12.0941   -2.0033   52.4205 C.ar    1  ZINC001574157642    0.1600
     19 N19       -11.5079   -2.2985   53.5664 N.ar    1  ZINC001574157642   -0.5000
     20 N20       -12.6148   -2.9992   58.8136 N.am    1  ZINC001574157642   -0.7300
     21 C21       -11.5792   -2.1690   59.0474 C.2     1  ZINC001574157642    0.5200
     22 O22       -11.0743   -1.5561   58.1307 O.2     1  ZINC001574157642   -0.5100
     23 C23       -11.0486   -2.0022   60.4480 C.3     1  ZINC001574157642   -0.1300
     24 H24       -11.5433   -2.7099   61.1132 H       1  ZINC001574157642    0.1100
     25 C25       -11.3126   -0.5711   60.9312 C.3     1  ZINC001574157642   -0.1000
     26 C26       -10.9318   -0.4821   62.4112 C.3     1  ZINC001574157642   -0.1400
     27 C27        -9.5679   -1.0731   62.6243 C.2     1  ZINC001574157642    0.5200
     28 O28        -8.9785   -0.8017   63.6490 O.2     1  ZINC001574157642   -0.5500
     29 N29        -8.9701   -1.8806   61.7474 N.am    1  ZINC001574157642   -0.7200
     30 C30        -9.5406   -2.2560   60.4590 C.3     1  ZINC001574157642    0.1200
     31 H31       -17.2287   -3.3362   57.1216 H       1  ZINC001574157642    0.0400
     32 H32       -17.3305   -1.6854   57.7795 H       1  ZINC001574157642    0.0500
     33 H33       -16.3348   -2.0099   56.3403 H       1  ZINC001574157642    0.0700
     34 H34       -14.9222   -1.7697   58.3640 H       1  ZINC001574157642    0.0700
     35 H35       -16.5050   -4.1828   59.3581 H       1  ZINC001574157642    0.0500
     36 H36       -15.0957   -3.4598   60.1701 H       1  ZINC001574157642    0.0500
     37 H37       -16.6069   -2.5320   60.0160 H       1  ZINC001574157642    0.0500
     38 H38       -14.5627   -4.6440   58.0776 H       1  ZINC001574157642    0.0700
     39 H39       -14.9145   -3.9029   56.4980 H       1  ZINC001574157642    0.0800
     40 H40       -11.5328   -4.6010   57.3648 H       1  ZINC001574157642    0.0800
     41 H41       -12.8554   -4.8991   56.2114 H       1  ZINC001574157642    0.0900
     42 H42       -10.5812   -3.1364   55.8006 H       1  ZINC001574157642    0.4100
     43 H43       -13.8883   -4.2279   54.8725 H       1  ZINC001574157642    0.1700
     44 H44       -14.2963   -0.9051   48.0973 H       1  ZINC001574157642    0.4800
     45 H45       -11.5935   -1.3668   51.7058 H       1  ZINC001574157642    0.1800
     46 H46       -13.0179   -3.4902   59.5466 H       1  ZINC001574157642    0.4000
     47 H47       -10.7078    0.1285   60.3541 H       1  ZINC001574157642    0.0800
     48 H48       -12.3688   -0.3315   60.8090 H       1  ZINC001574157642    0.0900
     49 H49       -10.9263    0.5628   62.7215 H       1  ZINC001574157642    0.1100
     50 H50       -11.6614   -1.0314   63.0063 H       1  ZINC001574157642    0.1000
     51 H51        -8.1017   -2.2433   61.9820 H       1  ZINC001574157642    0.4000
     52 H52        -9.3471   -3.3126   60.2735 H       1  ZINC001574157642    0.0800
     53 H53        -9.0737   -1.6638   59.6720 H       1  ZINC001574157642    0.0700
@<TRIPOS>BOND
     1     1     2    1
     2     1    31    1
     3     1    32    1
     4     1    33    1
     5     2     3    1
     6     2     4    1
     7     2    34    1
     8     3    35    1
     9     3    36    1
    10     3    37    1
    11     4     5    1
    12     4    38    1
    13     4    39    1
    14     5     6    1
    15     5     7    1
    16     5    20    1
    17     7     8    1
    18     7    40    1
    19     7    41    1
    20     8     9    1
    21     8    42    1
    22     9    19   ar
    23     9    10   ar
    24    10    11   ar
    25    10    43    1
    26    11    12   ar
    27    12    13    1
    28    12    18   ar
    29    13    17    1
    30    13    14    2
    31    14    15    1
    32    15    16    1
    33    15    44    1
    34    16    17    2
    35    18    19   ar
    36    18    45    1
    37    20    21   am
    38    20    46    1
    39    21    22    2
    40    21    23    1
    41    23    24    1
    42    23    30    1
    43    23    25    1
    44    25    26    1
    45    25    47    1
    46    25    48    1
    47    26    27    1
    48    26    49    1
    49    26    50    1
    50    27    28    2
    51    27    29   am
    52    29    30    1
    53    29    51    1
    54    30    52    1
    55    30    53    1
@<TRIPOS>SUBSTRUCTURE
     1 ZINC001574157642        1 TEMP              0 ****  ****    0 ROOT


##########                                Name:    ZINC000151820600
##########                DOCK_Rotatable_Bonds:                  10
##########                         Heavy_Atoms:                  25
##########                    Molecular_Weight:             388.915
##########                DOCK_Rotatable_Bonds:                  10
##########                       Formal_Charge:           0.0499998
##########                     HBond_Acceptors:                   8
##########                        HBond_Donors:                   2
##########                         Heavy_Atoms:                  25
##########                          Grid_Score:          -36.120972
##########                     Grid_vdw_energy:          -35.806412
##########                      Grid_es_energy:           -0.314559
##########           Internal_energy_repulsive:           18.712841

@<TRIPOS>MOLECULE
ZINC000151820600
 50 50 1 0 0
SMALL
USER_CHARGES


@<TRIPOS>ATOM
      1 C1        -13.8842   -0.4496   62.2816 C.3     1  ZINC000151820600   -0.4900
      2 S2        -15.1305   -1.6405   61.7170 S.o     1  ZINC000151820600    1.2500
      3 O3        -14.6667   -2.9618   61.9585 O.2     1  ZINC000151820600   -0.8500
      4 C4        -15.2002   -1.3414   59.9292 C.3     1  ZINC000151820600   -0.4500
      5 C5        -16.2241   -2.2842   59.2940 C.3     1  ZINC000151820600   -0.1100
      6 C6        -15.6100   -3.6775   59.1434 C.3     1  ZINC000151820600    0.1200
      7 N7        -14.3924   -3.5895   58.3336 N.am    1  ZINC000151820600   -0.7200
      8 C8        -14.0143   -4.6335   57.5695 C.2     1  ZINC000151820600    0.5200
      9 O9        -14.6815   -5.6463   57.5536 O.2     1  ZINC000151820600   -0.5200
     10 C10       -12.7629   -4.5424   56.7350 C.3     1  ZINC000151820600    0.1900
     11 H11       -12.5390   -5.5199   56.3080 H       1  ZINC000151820600    0.1300
     12 N12       -12.9652   -3.5726   55.6556 N.am    1  ZINC000151820600   -0.6900
     13 C13       -13.2941   -3.9986   54.4199 C.2     1  ZINC000151820600    0.6600
     14 O14       -13.4214   -5.1869   54.2008 O.2     1  ZINC000151820600   -0.5600
     15 O15       -13.4816   -3.1073   53.4284 O.3     1  ZINC000151820600   -0.3600
     16 C16       -12.2936   -2.5062   52.8491 C.3     1  ZINC000151820600    0.1400
     17 C17       -11.1664   -3.5400   52.8096 C.3     1  ZINC000151820600   -0.1800
     18 C18       -12.6027   -2.0341   51.4269 C.3     1  ZINC000151820600   -0.1400
     19 C19       -11.8599   -1.3111   53.7002 C.3     1  ZINC000151820600   -0.1800
     20 C20       -11.6128   -4.0972   57.6012 C.ar    1  ZINC000151820600   -0.1000
     21 C21       -10.7640   -5.0351   58.1584 C.ar    1  ZINC000151820600   -0.0900
     22 C22        -9.7083   -4.6273   58.9526 C.ar    1  ZINC000151820600   -0.1000
     23 C23        -9.5015   -3.2818   59.1904 C.ar    1  ZINC000151820600   -0.1000
     24 C24       -10.3510   -2.3425   58.6329 C.ar    1  ZINC000151820600   -0.0300
     25 Cl25      -10.0916   -0.6519   58.9307 Cl      1  ZINC000151820600   -0.0600
     26 C26       -11.4036   -2.7507   57.8337 C.ar    1  ZINC000151820600   -0.0900
     27 H27       -12.9354   -0.6538   61.7855 H       1  ZINC000151820600    0.0800
     28 H28       -14.2111    0.5614   62.0384 H       1  ZINC000151820600    0.1100
     29 H29       -13.7570   -0.5406   63.3604 H       1  ZINC000151820600    0.1100
     30 H30       -15.4943   -0.3082   59.7448 H       1  ZINC000151820600    0.1200
     31 H31       -14.2185   -1.5234   59.4919 H       1  ZINC000151820600    0.0900
     32 H32       -17.1073   -2.3433   59.9300 H       1  ZINC000151820600    0.0800
     33 H33       -16.5080   -1.9043   58.3125 H       1  ZINC000151820600    0.0900
     34 H34       -15.3635   -4.0742   60.1283 H       1  ZINC000151820600    0.0800
     35 H35       -16.3250   -4.3388   58.6539 H       1  ZINC000151820600    0.0700
     36 H36       -13.8582   -2.7800   58.3472 H       1  ZINC000151820600    0.4000
     37 H37       -12.8624   -2.6240   55.8303 H       1  ZINC000151820600    0.4200
     38 H38       -11.4755   -4.3915   52.2032 H       1  ZINC000151820600    0.0600
     39 H39       -10.2747   -3.0888   52.3746 H       1  ZINC000151820600    0.0700
     40 H40       -10.9463   -3.8763   53.8227 H       1  ZINC000151820600    0.0900
     41 H41       -13.4057   -1.2976   51.4550 H       1  ZINC000151820600    0.0700
     42 H42       -11.7109   -1.5829   50.9920 H       1  ZINC000151820600    0.0800
     43 H43       -12.9117   -2.8856   50.8205 H       1  ZINC000151820600    0.0700
     44 H44       -11.6397   -1.6474   54.7134 H       1  ZINC000151820600    0.0900
     45 H45       -10.9681   -0.8599   53.2652 H       1  ZINC000151820600    0.0700
     46 H46       -12.6629   -0.5746   53.7283 H       1  ZINC000151820600    0.0600
     47 H47       -10.9256   -6.0868   57.9734 H       1  ZINC000151820600    0.1300
     48 H48        -9.0454   -5.3606   59.3877 H       1  ZINC000151820600    0.1400
     49 H49        -8.6774   -2.9635   59.8116 H       1  ZINC000151820600    0.1400
     50 H50       -12.0670   -2.0180   57.3983 H       1  ZINC000151820600    0.1400
@<TRIPOS>BOND
     1     1     2    1
     2     1    27    1
     3     1    28    1
     4     1    29    1
     5     2     3    2
     6     2     4    1
     7     4     5    1
     8     4    30    1
     9     4    31    1
    10     5     6    1
    11     5    32    1
    12     5    33    1
    13     6     7    1
    14     6    34    1
    15     6    35    1
    16     7     8   am
    17     7    36    1
    18     8     9    2
    19     8    10    1
    20    10    11    1
    21    10    12    1
    22    10    20    1
    23    12    13   am
    24    12    37    1
    25    13    14    2
    26    13    15    1
    27    15    16    1
    28    16    17    1
    29    16    18    1
    30    16    19    1
    31    17    38    1
    32    17    39    1
    33    17    40    1
    34    18    41    1
    35    18    42    1
    36    18    43    1
    37    19    44    1
    38    19    45    1
    39    19    46    1
    40    20    26   ar
    41    20    21   ar
    42    21    22   ar
    43    21    47    1
    44    22    23   ar
    45    22    48    1
    46    23    24   ar
    47    23    49    1
    48    24    25    1
    49    24    26   ar
    50    26    50    1
@<TRIPOS>SUBSTRUCTURE
     1 ZINC000151820600        1 TEMP              0 ****  ****    0 ROOT


##########                                Name:    ZINC001342153661
##########                DOCK_Rotatable_Bonds:                   8
##########                         Heavy_Atoms:                  29
##########                    Molecular_Weight:             395.548
##########                DOCK_Rotatable_Bonds:                   8
##########                       Formal_Charge:          -0.0400005
##########                     HBond_Acceptors:                   6
##########                        HBond_Donors:                   1
##########                         Heavy_Atoms:                  29
##########                          Grid_Score:          -36.112061
##########                     Grid_vdw_energy:          -34.884998
##########                      Grid_es_energy:           -1.227063
##########           Internal_energy_repulsive:           15.918041

@<TRIPOS>MOLECULE
ZINC001342153661
 62 65 1 0 0
SMALL
USER_CHARGES


@<TRIPOS>ATOM
      1 C1        -14.0367   -0.6792   61.2080 C.2     1  ZINC001342153661   -0.1400
      2 C2        -13.8792   -1.1718   60.0043 C.2     1  ZINC001342153661   -0.1600
      3 C3        -14.0786   -0.2912   58.7978 C.3     1  ZINC001342153661   -0.1200
      4 C4        -13.4988   -2.6191   59.8264 C.3     1  ZINC001342153661    0.1500
      5 N5        -12.2194   -2.7043   59.1179 N.pl3   1  ZINC001342153661   -0.4700
      6 C6        -10.9748   -2.4602   59.6291 C.2     1  ZINC001342153661    0.1800
      7 C7        -10.6550   -2.0483   61.0430 C.3     1  ZINC001342153661   -0.0600
      8 C8         -9.9304   -0.7008   61.0302 C.3     1  ZINC001342153661    0.1600
      9 H9         -8.9501   -0.8199   60.5688 H       1  ZINC001342153661    0.1000
     10 O10       -10.6970    0.2451   60.2819 O.3     1  ZINC001342153661   -0.5400
     11 C11        -9.7638   -0.2064   62.4440 C.ar    1  ZINC001342153661   -0.1700
     12 C12        -9.1247   -0.9912   63.3911 C.ar    1  ZINC001342153661   -0.0600
     13 C13        -8.9937   -0.4953   64.6795 C.ar    1  ZINC001342153661   -0.1700
     14 C14        -9.5012    0.7557   64.9743 C.ar    1  ZINC001342153661    0.1000
     15 N15       -10.1036    1.4749   64.0474 N.ar    1  ZINC001342153661   -0.4800
     16 C16       -10.2413    1.0377   62.8112 C.ar    1  ZINC001342153661    0.1100
     17 N17       -10.1166   -2.6507   58.6674 N.2     1  ZINC001342153661   -0.2700
     18 N18       -10.7295   -2.9958   57.5917 N.2     1  ZINC001342153661   -0.3200
     19 C19       -12.0219   -3.0493   57.8126 C.2     1  ZINC001342153661    0.3600
     20 N20       -13.0019   -3.3846   56.8919 N.3     1  ZINC001342153661   -0.4500
     21 C21       -13.3192   -4.8168   56.9592 C.3     1  ZINC001342153661    0.0500
     22 C22       -14.5012   -5.1226   56.0363 C.3     1  ZINC001342153661   -0.1200
     23 C23       -14.1381   -4.7280   54.6021 C.3     1  ZINC001342153661   -0.1200
     24 C24       -13.7650   -3.2433   54.5685 C.3     1  ZINC001342153661   -0.0800
     25 H25       -14.6249   -2.6450   54.8697 H       1  ZINC001342153661    0.0800
     26 C26       -13.3439   -2.8545   53.1499 C.3     1  ZINC001342153661   -0.0800
     27 C27       -14.5760   -2.8071   52.2125 C.3     1  ZINC001342153661   -0.1200
     28 C28       -14.1087   -1.8577   51.0814 C.3     1  ZINC001342153661   -0.1300
     29 C29       -13.2809   -0.7793   51.8106 C.3     1  ZINC001342153661   -0.1300
     30 C30       -12.7946   -1.4131   53.1258 C.3     1  ZINC001342153661   -0.1200
     31 C31       -12.6044   -2.9920   55.5339 C.3     1  ZINC001342153661    0.0800
     32 H32       -14.3093    0.3580   61.3355 H       1  ZINC001342153661    0.1000
     33 H33       -13.8980   -1.3114   62.0726 H       1  ZINC001342153661    0.1100
     34 H34       -13.1541    0.2439   58.5817 H       1  ZINC001342153661    0.0700
     35 H35       -14.3514   -0.9062   57.9402 H       1  ZINC001342153661    0.0600
     36 H36       -14.8749    0.4256   58.9986 H       1  ZINC001342153661    0.0700
     37 H37       -13.4052   -3.0929   60.8036 H       1  ZINC001342153661    0.1000
     38 H38       -14.2691   -3.1287   59.2478 H       1  ZINC001342153661    0.1000
     39 H39       -11.5798   -1.9581   61.6131 H       1  ZINC001342153661    0.1100
     40 H40       -10.0154   -2.8004   61.5049 H       1  ZINC001342153661    0.1000
     41 H41       -10.4458    1.1659   60.4374 H       1  ZINC001342153661    0.3800
     42 H42        -8.7381   -1.9658   63.1320 H       1  ZINC001342153661    0.1300
     43 H43        -8.5017   -1.0797   65.4430 H       1  ZINC001342153661    0.1400
     44 H44        -9.4035    1.1488   65.9754 H       1  ZINC001342153661    0.1600
     45 H45       -10.7407    1.6551   62.0791 H       1  ZINC001342153661    0.1500
     46 H46       -12.4519   -5.3963   56.6425 H       1  ZINC001342153661    0.0500
     47 H47       -13.5798   -5.0833   57.9835 H       1  ZINC001342153661    0.0700
     48 H48       -14.7265   -6.1884   56.0746 H       1  ZINC001342153661    0.0800
     49 H49       -15.3727   -4.5539   56.3607 H       1  ZINC001342153661    0.0700
     50 H50       -13.2907   -5.3242   54.2637 H       1  ZINC001342153661    0.0600
     51 H51       -14.9925   -4.9037   53.9486 H       1  ZINC001342153661    0.0700
     52 H52       -12.5989   -3.5530   52.7691 H       1  ZINC001342153661    0.0800
     53 H53       -14.7989   -3.7983   51.8173 H       1  ZINC001342153661    0.0700
     54 H54       -15.4406   -2.3935   52.7315 H       1  ZINC001342153661    0.0700
     55 H55       -13.4880   -2.3951   50.3643 H       1  ZINC001342153661    0.0600
     56 H56       -14.9668   -1.4074   50.5825 H       1  ZINC001342153661    0.0600
     57 H57       -12.4273   -0.4870   51.1991 H       1  ZINC001342153661    0.0600
     58 H58       -13.9039    0.0895   52.0227 H       1  ZINC001342153661    0.0600
     59 H59       -13.1817   -0.8517   53.9762 H       1  ZINC001342153661    0.0600
     60 H60       -11.7051   -1.4281   53.1525 H       1  ZINC001342153661    0.0600
     61 H61       -12.3457   -1.9332   55.5230 H       1  ZINC001342153661    0.0900
     62 H62       -11.7404   -3.5800   55.2240 H       1  ZINC001342153661    0.0500
@<TRIPOS>BOND
     1     1     2    2
     2     1    32    1
     3     1    33    1
     4     2     3    1
     5     2     4    1
     6     3    34    1
     7     3    35    1
     8     3    36    1
     9     4     5    1
    10     4    37    1
    11     4    38    1
    12     5    19    1
    13     5     6    1
    14     6     7    1
    15     6    17    2
    16     7     8    1
    17     7    39    1
    18     7    40    1
    19     8     9    1
    20     8    10    1
    21     8    11    1
    22    10    41    1
    23    11    16   ar
    24    11    12   ar
    25    12    13   ar
    26    12    42    1
    27    13    14   ar
    28    13    43    1
    29    14    15   ar
    30    14    44    1
    31    15    16   ar
    32    16    45    1
    33    17    18    1
    34    18    19    2
    35    19    20    1
    36    20    31    1
    37    20    21    1
    38    21    22    1
    39    21    46    1
    40    21    47    1
    41    22    23    1
    42    22    48    1
    43    22    49    1
    44    23    24    1
    45    23    50    1
    46    23    51    1
    47    24    25    1
    48    24    26    1
    49    24    31    1
    50    26    30    1
    51    26    27    1
    52    26    52    1
    53    27    28    1
    54    27    53    1
    55    27    54    1
    56    28    29    1
    57    28    55    1
    58    28    56    1
    59    29    30    1
    60    29    57    1
    61    29    58    1
    62    30    59    1
    63    30    60    1
    64    31    61    1
    65    31    62    1
@<TRIPOS>SUBSTRUCTURE
     1 ZINC001342153661        1 TEMP              0 ****  ****    0 ROOT


##########                                Name:    ZINC000429196987
##########                DOCK_Rotatable_Bonds:                   7
##########                         Heavy_Atoms:                  28
##########                    Molecular_Weight:             403.505
##########                DOCK_Rotatable_Bonds:                   7
##########                       Formal_Charge:          -0.0399997
##########                     HBond_Acceptors:                   9
##########                        HBond_Donors:                   1
##########                         Heavy_Atoms:                  28
##########                          Grid_Score:          -36.086216
##########                     Grid_vdw_energy:          -35.106972
##########                      Grid_es_energy:           -0.979243
##########           Internal_energy_repulsive:           12.156383

@<TRIPOS>MOLECULE
ZINC000429196987
 53 55 1 0 0
SMALL
USER_CHARGES


@<TRIPOS>ATOM
      1 C1        -12.2371   -4.1467   52.9372 C.3     1  ZINC000429196987    0.0800
      2 N2        -12.6657   -3.2904   54.0460 N.am    1  ZINC000429196987   -0.6300
      3 C3        -13.9190   -2.5381   53.9483 C.3     1  ZINC000429196987    0.1600
      4 C4        -14.1486   -2.1283   52.5165 C.ar    1  ZINC000429196987   -0.0600
      5 C5        -14.9748   -2.8835   51.7054 C.ar    1  ZINC000429196987   -0.1300
      6 C6        -15.1854   -2.5075   50.3919 C.ar    1  ZINC000429196987   -0.0300
      7 C7        -14.5702   -1.3761   49.8896 C.ar    1  ZINC000429196987   -0.6600
      8 S8        -14.8383   -0.8972   48.2153 S.o2    1  ZINC000429196987    2.5000
      9 C9        -15.5878    0.7507   48.3302 C.3     1  ZINC000429196987   -0.6500
     10 O10       -13.5324   -0.8135   47.6614 O.2     1  ZINC000429196987   -0.9400
     11 O11       -15.7818   -1.8413   47.7275 O.2     1  ZINC000429196987   -0.9400
     12 C12       -13.7450   -0.6202   50.7011 C.ar    1  ZINC000429196987   -0.0300
     13 C13       -13.5374   -0.9939   52.0157 C.ar    1  ZINC000429196987   -0.1100
     14 C14       -11.9072   -3.1950   55.1559 C.2     1  ZINC000429196987    0.7100
     15 O15       -10.8664   -3.8183   55.2363 O.2     1  ZINC000429196987   -0.5800
     16 N16       -12.3024   -2.4086   56.1766 N.am    1  ZINC000429196987   -0.7400
     17 C17       -11.4787   -2.3062   57.3838 C.3     1  ZINC000429196987    0.1600
     18 C18       -11.1951   -0.8322   57.6864 C.3     1  ZINC000429196987   -0.1300
     19 C19       -10.3862   -0.7287   58.9814 C.3     1  ZINC000429196987    0.0700
     20 N20       -11.1437   -1.3362   60.0830 N.3     1  ZINC000429196987   -0.4700
     21 C21       -10.4965   -1.1436   61.2985 C.ar    1  ZINC000429196987    0.2500
     22 C22       -10.8609   -0.0819   62.1257 C.ar    1  ZINC000429196987   -0.1300
     23 C23       -10.1852    0.0665   63.3266 C.ar    1  ZINC000429196987   -0.1000
     24 C24        -9.1884   -0.8496   63.6319 C.ar    1  ZINC000429196987    0.0200
     25 N25        -8.9088   -1.8247   62.7901 N.ar    1  ZINC000429196987   -0.2200
     26 N26        -9.5341   -1.9714   61.6788 N.ar    1  ZINC000429196987   -0.2800
     27 C27       -11.3868   -2.7633   59.8367 C.3     1  ZINC000429196987    0.0600
     28 C28       -12.2256   -2.9275   58.5672 C.3     1  ZINC000429196987   -0.1200
     29 H29       -11.6232   -3.5676   52.2473 H       1  ZINC000429196987    0.0600
     30 H30       -11.6558   -4.9823   53.3270 H       1  ZINC000429196987    0.0700
     31 H31       -13.1133   -4.5272   52.4122 H       1  ZINC000429196987    0.0800
     32 H32       -14.7457   -3.1641   54.2842 H       1  ZINC000429196987    0.1000
     33 H33       -13.8586   -1.6487   54.5756 H       1  ZINC000429196987    0.0900
     34 H34       -15.4556   -3.7674   52.0978 H       1  ZINC000429196987    0.1300
     35 H35       -15.8304   -3.0979   49.7580 H       1  ZINC000429196987    0.1400
     36 H36       -14.9026    1.4266   48.8420 H       1  ZINC000429196987    0.1300
     37 H37       -15.7899    1.1285   47.3280 H       1  ZINC000429196987    0.1300
     38 H38       -16.5211    0.6871   48.8896 H       1  ZINC000429196987    0.1300
     39 H39       -13.2646    0.2640   50.3088 H       1  ZINC000429196987    0.1400
     40 H40       -12.8927   -0.4033   52.6496 H       1  ZINC000429196987    0.1400
     41 H41       -13.1321   -1.9103   56.1120 H       1  ZINC000429196987    0.4000
     42 H42       -10.5380   -2.8347   57.2288 H       1  ZINC000429196987    0.0900
     43 H43       -10.6260   -0.3952   56.8658 H       1  ZINC000429196987    0.0800
     44 H44       -12.1374   -0.2967   57.8021 H       1  ZINC000429196987    0.0700
     45 H45        -9.4382   -1.2527   58.8602 H       1  ZINC000429196987    0.0600
     46 H46       -10.1950    0.3203   59.2073 H       1  ZINC000429196987    0.0900
     47 H47       -11.6448    0.6036   61.8394 H       1  ZINC000429196987    0.1500
     48 H48       -10.4268    0.8716   64.0048 H       1  ZINC000429196987    0.1500
     49 H49        -8.6415   -0.7635   64.5593 H       1  ZINC000429196987    0.1700
     50 H50       -10.4341   -3.2777   59.7116 H       1  ZINC000429196987    0.0500
     51 H51       -11.9224   -3.1920   60.6837 H       1  ZINC000429196987    0.0900
     52 H52       -13.1842   -2.4250   58.6968 H       1  ZINC000429196987    0.0800
     53 H53       -12.3928   -3.9875   58.3760 H       1  ZINC000429196987    0.0800
@<TRIPOS>BOND
     1     1     2    1
     2     1    29    1
     3     1    30    1
     4     1    31    1
     5     2     3    1
     6     2    14   am
     7     3     4    1
     8     3    32    1
     9     3    33    1
    10     4    13   ar
    11     4     5   ar
    12     5     6   ar
    13     5    34    1
    14     6     7   ar
    15     6    35    1
    16     7     8    1
    17     7    12   ar
    18     8     9    1
    19     8    10    2
    20     8    11    2
    21     9    36    1
    22     9    37    1
    23     9    38    1
    24    12    13   ar
    25    12    39    1
    26    13    40    1
    27    14    15    2
    28    14    16   am
    29    16    17    1
    30    16    41    1
    31    17    28    1
    32    17    18    1
    33    17    42    1
    34    18    19    1
    35    18    43    1
    36    18    44    1
    37    19    20    1
    38    19    45    1
    39    19    46    1
    40    20    21    1
    41    20    27    1
    42    21    26   ar
    43    21    22   ar
    44    22    23   ar
    45    22    47    1
    46    23    24   ar
    47    23    48    1
    48    24    25   ar
    49    24    49    1
    50    25    26   ar
    51    27    28    1
    52    27    50    1
    53    27    51    1
    54    28    52    1
    55    28    53    1
@<TRIPOS>SUBSTRUCTURE
     1 ZINC000429196987        1 TEMP              0 ****  ****    0 ROOT


##########                                Name:    ZINC000266467123
##########                DOCK_Rotatable_Bonds:                   9
##########                         Heavy_Atoms:                  25
##########                    Molecular_Weight:             337.421
##########                DOCK_Rotatable_Bonds:                   9
##########                       Formal_Charge:                0.02
##########                     HBond_Acceptors:                   5
##########                        HBond_Donors:                   3
##########                         Heavy_Atoms:                  25
##########                          Grid_Score:          -36.047852
##########                     Grid_vdw_energy:          -35.840370
##########                      Grid_es_energy:           -0.207482
##########           Internal_energy_repulsive:           10.204451

@<TRIPOS>MOLECULE
ZINC000266467123
 48 50 1 0 0
SMALL
USER_CHARGES


@<TRIPOS>ATOM
      1 C1        -14.3567   -6.3357   56.5962 C.3     1  <0>        -0.1600
      2 C2        -14.2151   -4.8516   56.2525 C.3     1  <0>         0.1500
      3 H3        -15.1922   -4.3716   56.3055 H       1  <0>         0.1200
      4 N4        -13.6761   -4.7135   54.8973 N.am    1  <0>        -0.7300
      5 C5        -13.9033   -3.5869   54.1931 C.2     1  <0>         0.7100
      6 O6        -14.5544   -2.6847   54.6832 O.2     1  <0>        -0.5900
      7 N7        -13.4088   -3.4607   52.9458 N.am    1  <0>        -0.7100
      8 C8        -13.6542   -2.2355   52.1811 C.3     1  <0>         0.1100
      9 H9        -14.7020   -1.9991   51.9955 H       1  <0>         0.1400
     10 C10       -12.6435   -1.8672   51.0931 C.3     1  <0>        -0.1900
     11 C11       -12.6933   -1.0643   52.3955 C.3     1  <0>        -0.1500
     12 H12       -13.1086   -0.0576   52.3506 H       1  <0>         0.1200
     13 C13       -11.5487   -1.2622   53.3915 C.3     1  <0>        -0.0500
     14 C14       -10.2653   -0.7500   52.7901 C.ar    1  <0>        -0.0800
     15 C15        -9.4903   -1.5817   52.0036 C.ar    1  <0>        -0.1100
     16 C16        -8.3132   -1.1118   51.4519 C.ar    1  <0>        -0.1200
     17 C17        -7.9111    0.1897   51.6864 C.ar    1  <0>        -0.1200
     18 C18        -8.6866    1.0218   52.4722 C.ar    1  <0>        -0.1200
     19 C19        -9.8660    0.5533   53.0203 C.ar    1  <0>        -0.1200
     20 C20       -13.2791   -4.1956   57.2347 C.2     1  <0>         0.5100
     21 O21       -13.7008   -3.7927   58.2980 O.2     1  <0>        -0.5100
     22 N22       -11.9733   -4.0567   56.9313 N.am    1  <0>        -0.6700
     23 C23       -11.1041   -3.4477   57.8433 C.ar    1  <0>         0.1400
     24 C24       -10.3767   -4.2239   58.7359 C.ar    1  <0>        -0.1400
     25 C25        -9.5196   -3.6196   59.6349 C.ar    1  <0>        -0.1000
     26 C26        -9.3859   -2.2434   59.6469 C.ar    1  <0>        -0.1300
     27 C27       -10.1092   -1.4677   58.7596 C.ar    1  <0>        -0.1000
     28 C28       -10.9629   -2.0662   57.8537 C.ar    1  <0>        -0.1200
     29 H29       -14.7578   -6.4386   57.6045 H       1  <0>         0.0700
     30 H30       -15.0337   -6.8103   55.8858 H       1  <0>         0.0800
     31 H31       -13.3796   -6.8158   56.5431 H       1  <0>         0.0700
     32 H32       -13.1556   -5.4329   54.5067 H       1  <0>         0.4100
     33 H33       -12.8903   -4.1810   52.5544 H       1  <0>         0.4000
     34 H34       -11.7959   -2.5366   50.9463 H       1  <0>         0.1000
     35 H35       -13.0262   -1.3883   50.1919 H       1  <0>         0.1000
     36 H36       -11.7653   -0.7128   54.3076 H       1  <0>         0.0800
     37 H37       -11.4451   -2.3229   53.6198 H       1  <0>         0.0700
     38 H38        -9.8045   -2.5986   51.8204 H       1  <0>         0.1200
     39 H39        -7.7073   -1.7620   50.8381 H       1  <0>         0.1200
     40 H40        -6.9910    0.5566   51.2560 H       1  <0>         0.1200
     41 H41        -8.3723    2.0386   52.6556 H       1  <0>         0.1200
     42 H42       -10.4718    1.2032   53.6341 H       1  <0>         0.1200
     43 H43       -11.6360   -4.3789   56.0809 H       1  <0>         0.4100
     44 H44       -10.4812   -5.2987   58.7275 H       1  <0>         0.1300
     45 H45        -8.9536   -4.2228   60.3293 H       1  <0>         0.1300
     46 H46        -8.7153   -1.7732   60.3510 H       1  <0>         0.1200
     47 H47       -10.0031   -0.3930   58.7719 H       1  <0>         0.1300
     48 H48       -11.5276   -1.4599   57.1610 H       1  <0>         0.1400
@<TRIPOS>BOND
     1     1     2    1
     2     1    29    1
     3     1    30    1
     4     1    31    1
     5     2     3    1
     6     2     4    1
     7     2    20    1
     8     4     5   am
     9     4    32    1
    10     5     6    2
    11     5     7   am
    12     7     8    1
    13     7    33    1
    14     8     9    1
    15     8    11    1
    16     8    10    1
    17    10    11    1
    18    10    34    1
    19    10    35    1
    20    11    12    1
    21    11    13    1
    22    13    14    1
    23    13    36    1
    24    13    37    1
    25    14    19   ar
    26    14    15   ar
    27    15    16   ar
    28    15    38    1
    29    16    17   ar
    30    16    39    1
    31    17    18   ar
    32    17    40    1
    33    18    19   ar
    34    18    41    1
    35    19    42    1
    36    20    21    2
    37    20    22   am
    38    22    23    1
    39    22    43    1
    40    23    28   ar
    41    23    24   ar
    42    24    25   ar
    43    24    44    1
    44    25    26   ar
    45    25    45    1
    46    26    27   ar
    47    26    46    1
    48    27    28   ar
    49    27    47    1
    50    28    48    1
@<TRIPOS>SUBSTRUCTURE
     1 <0>         1 TEMP              0 ****  ****    0 ROOT


##########                                Name:    ZINC000583220082
##########                DOCK_Rotatable_Bonds:                   9
##########                         Heavy_Atoms:                  29
##########                    Molecular_Weight:             417.492
##########                DOCK_Rotatable_Bonds:                   9
##########                       Formal_Charge:          -0.0400006
##########                     HBond_Acceptors:                  11
##########                        HBond_Donors:                   3
##########                         Heavy_Atoms:                  29
##########                          Grid_Score:          -35.993427
##########                     Grid_vdw_energy:          -36.217571
##########                      Grid_es_energy:            0.224146
##########           Internal_energy_repulsive:           15.341252

@<TRIPOS>MOLECULE
ZINC000583220082
 52 54 1 0 0
SMALL
USER_CHARGES


@<TRIPOS>ATOM
      1 C1        -16.4391   -0.3826   49.5364 C.3     1  ZINC000583220082    0.0800
      2 N2        -15.1568   -1.0868   49.6162 N.am    1  ZINC000583220082   -0.6300
      3 C3        -14.2902   -1.1663   48.4377 C.3     1  ZINC000583220082    0.0800
      4 C4        -14.7745   -1.6614   50.7739 C.2     1  ZINC000583220082    0.5100
      5 O5        -13.7122   -2.2430   50.8404 O.2     1  ZINC000583220082   -0.5300
      6 C6        -15.6668   -1.5811   51.9856 C.3     1  ZINC000583220082   -0.1000
      7 C7        -14.9167   -2.0758   53.1955 C.ar    1  ZINC000583220082   -0.0800
      8 C8        -14.8324   -3.4329   53.4476 C.ar    1  ZINC000583220082   -0.0800
      9 C9        -14.1459   -3.8897   54.5553 C.ar    1  ZINC000583220082   -0.1400
     10 C10       -13.5389   -2.9841   55.4165 C.ar    1  ZINC000583220082    0.1400
     11 N11       -12.8431   -3.4428   56.5381 N.am    1  ZINC000583220082   -0.6400
     12 C12       -11.5750   -3.8813   56.4115 C.2     1  ZINC000583220082    0.5100
     13 O13       -11.0374   -3.8778   55.3233 O.2     1  ZINC000583220082   -0.4900
     14 C14       -10.8313   -4.3716   57.6103 C.2     1  ZINC000583220082    0.5100
     15 O15       -10.7686   -5.5614   57.8409 O.2     1  ZINC000583220082   -0.5100
     16 N16       -10.2296   -3.4926   58.4361 N.am    1  ZINC000583220082   -0.5800
     17 C17       -10.2984   -2.0462   58.1786 C.3     1  ZINC000583220082    0.0600
     18 C18       -10.7674   -1.3457   59.4582 C.3     1  ZINC000583220082    0.0300
     19 N19        -9.8963   -1.7372   60.5744 N.3     1  ZINC000583220082   -0.4300
     20 C20       -10.1859   -1.0034   61.7099 C.2     1  ZINC000583220082    0.2900
     21 N21       -11.2849   -0.3256   61.9660 N.2     1  ZINC000583220082   -0.5700
     22 C22       -11.3390    0.3018   63.1227 C.2     1  ZINC000583220082    0.5400
     23 N23       -12.4595    1.0466   63.4881 N.pl3   1  ZINC000583220082   -0.8200
     24 N24       -10.3056    0.2015   63.9157 N.2     1  ZINC000583220082   -0.5500
     25 S25        -9.1895   -0.7849   63.0981 S.3     1  ZINC000583220082    0.2000
     26 C26        -9.9880   -3.1788   60.8416 C.3     1  ZINC000583220082    0.0500
     27 C27        -9.4921   -3.9541   59.6220 C.3     1  ZINC000583220082    0.1100
     28 C28       -13.6253   -1.6214   55.1600 C.ar    1  ZINC000583220082   -0.1200
     29 C29       -14.3093   -1.1719   54.0478 C.ar    1  ZINC000583220082   -0.0800
     30 H30       -17.2194   -1.0818   49.2356 H       1  ZINC000583220082    0.0500
     31 H31       -16.6842    0.0376   50.5119 H       1  ZINC000583220082    0.0800
     32 H32       -16.3677    0.4201   48.8025 H       1  ZINC000583220082    0.0700
     33 H33       -14.7629   -0.6478   47.6035 H       1  ZINC000583220082    0.0800
     34 H34       -13.3312   -0.6984   48.6598 H       1  ZINC000583220082    0.0600
     35 H35       -14.1319   -2.2116   48.1730 H       1  ZINC000583220082    0.0600
     36 H36       -15.9713   -0.5467   52.1447 H       1  ZINC000583220082    0.1000
     37 H37       -16.5502   -2.1998   51.8279 H       1  ZINC000583220082    0.1000
     38 H38       -15.3044   -4.1364   52.7776 H       1  ZINC000583220082    0.1300
     39 H39       -14.0810   -4.9496   54.7520 H       1  ZINC000583220082    0.1300
     40 H40       -13.2728   -3.4456   57.4078 H       1  ZINC000583220082    0.4200
     41 H41        -9.3116   -1.6766   57.8995 H       1  ZINC000583220082    0.0900
     42 H42       -11.0067   -1.8509   57.3735 H       1  ZINC000583220082    0.1700
     43 H43       -10.7187   -0.2655   59.3204 H       1  ZINC000583220082    0.1100
     44 H44       -11.7940   -1.6387   59.6780 H       1  ZINC000583220082    0.0700
     45 H45       -12.5284    1.4112   64.3844 H       1  ZINC000583220082    0.4200
     46 H46       -13.1702    1.2003   62.8461 H       1  ZINC000583220082    0.4200
     47 H47        -9.3738   -3.4280   61.7070 H       1  ZINC000583220082    0.1100
     48 H48       -11.0254   -3.4463   61.0420 H       1  ZINC000583220082    0.0600
     49 H49        -9.6647   -5.0199   59.7707 H       1  ZINC000583220082    0.1100
     50 H50        -8.4275   -3.7691   59.4786 H       1  ZINC000583220082    0.0900
     51 H51       -13.1546   -0.9147   55.8275 H       1  ZINC000583220082    0.1400
     52 H52       -14.3768   -0.1127   53.8477 H       1  ZINC000583220082    0.1300
@<TRIPOS>BOND
     1     1     2    1
     2     1    30    1
     3     1    31    1
     4     1    32    1
     5     2     3    1
     6     2     4   am
     7     3    33    1
     8     3    34    1
     9     3    35    1
    10     4     5    2
    11     4     6    1
    12     6     7    1
    13     6    36    1
    14     6    37    1
    15     7    29   ar
    16     7     8   ar
    17     8     9   ar
    18     8    38    1
    19     9    10   ar
    20     9    39    1
    21    10    11    1
    22    10    28   ar
    23    11    12   am
    24    11    40    1
    25    12    13    2
    26    12    14    1
    27    14    15    2
    28    14    16   am
    29    16    27    1
    30    16    17    1
    31    17    18    1
    32    17    41    1
    33    17    42    1
    34    18    19    1
    35    18    43    1
    36    18    44    1
    37    19    20    1
    38    19    26    1
    39    20    25    1
    40    20    21    2
    41    21    22    1
    42    22    23    1
    43    22    24    2
    44    23    45    1
    45    23    46    1
    46    24    25    1
    47    26    27    1
    48    26    47    1
    49    26    48    1
    50    27    49    1
    51    27    50    1
    52    28    29   ar
    53    28    51    1
    54    29    52    1
@<TRIPOS>SUBSTRUCTURE
     1 ZINC000583220082        1 TEMP              0 ****  ****    0 ROOT


##########                                Name:    ZINC000466160459
##########                DOCK_Rotatable_Bonds:                   9
##########                         Heavy_Atoms:                  30
##########                    Molecular_Weight:             420.512
##########                DOCK_Rotatable_Bonds:                   9
##########                       Formal_Charge:          -0.0300007
##########                     HBond_Acceptors:                  10
##########                        HBond_Donors:                   2
##########                         Heavy_Atoms:                  30
##########                          Grid_Score:          -35.979622
##########                     Grid_vdw_energy:          -35.037270
##########                      Grid_es_energy:           -0.942351
##########           Internal_energy_repulsive:          102.968903

@<TRIPOS>MOLECULE
ZINC000466160459
 62 64 1 0 0
SMALL
USER_CHARGES


@<TRIPOS>ATOM
      1 C1        -13.8135   -5.5824   55.5464 C.3     1  ZINC000466160459    0.0300
      2 O2        -12.8049   -4.6490   55.1544 O.3     1  ZINC000466160459   -0.3900
      3 C3        -12.8362   -4.3078   53.7671 C.3     1  ZINC000466160459    0.0500
      4 C4        -11.7650   -3.2547   53.4766 C.3     1  ZINC000466160459    0.1200
      5 N5        -12.2392   -1.9410   53.9185 N.am    1  ZINC000466160459   -0.7300
      6 C6        -11.9552   -0.8424   53.1913 C.2     1  ZINC000466160459    0.5200
      7 O7        -11.3083   -0.9416   52.1702 O.2     1  ZINC000466160459   -0.5200
      8 C8        -12.4415    0.5093   53.6468 C.3     1  ZINC000466160459   -0.1300
      9 H9        -13.4911    0.6281   53.3776 H       1  ZINC000466160459    0.1100
     10 C10       -11.6136    1.6046   52.9707 C.3     1  ZINC000466160459   -0.1000
     11 C11       -10.1355    1.4187   53.3209 C.3     1  ZINC000466160459   -0.1500
     12 C12        -9.9546    1.5425   54.8371 C.3     1  ZINC000466160459    0.1600
     13 H13       -10.1983    2.5570   55.1525 H       1  ZINC000466160459    0.0700
     14 C14        -8.5049    1.2242   55.2083 C.3     1  ZINC000466160459   -0.1400
     15 N15       -10.8562    0.5905   55.5001 N.am    1  ZINC000466160459   -0.6200
     16 C16       -10.3801   -0.2952   56.3975 C.2     1  ZINC000466160459    0.7100
     17 O17        -9.1942   -0.3115   56.6652 O.2     1  ZINC000466160459   -0.5500
     18 N18       -11.2185   -1.1627   56.9982 N.am    1  ZINC000466160459   -0.7300
     19 C19       -10.7010   -2.1255   57.9736 C.3     1  ZINC000466160459    0.1600
     20 H20        -9.8009   -2.5948   57.5766 H       1  ZINC000466160459    0.1300
     21 C21       -11.7593   -3.1990   58.2393 C.3     1  ZINC000466160459   -0.1400
     22 C22       -12.8991   -2.5665   59.0469 C.3     1  ZINC000466160459   -0.1400
     23 C23       -12.3745   -2.2110   60.4386 C.3     1  ZINC000466160459    0.1100
     24 N24       -11.1393   -1.4439   60.3376 N.am    1  ZINC000466160459   -0.5200
     25 C25       -10.7382   -0.6949   61.4522 C.2     1  ZINC000466160459    0.2800
     26 N26        -9.8589   -1.0645   62.3534 N.2     1  ZINC000466160459   -0.2600
     27 N27        -9.7428   -0.0366   63.2978 N.pl3   1  ZINC000466160459   -0.3800
     28 C28        -8.8672   -0.0418   64.4724 C.3     1  ZINC000466160459    0.1000
     29 C29       -10.5784    0.9598   62.9362 C.2     1  ZINC000466160459    0.0700
     30 C30       -11.2025    0.5846   61.7966 C.2     1  ZINC000466160459   -0.2900
     31 C31       -10.3685   -1.4108   59.2519 C.2     1  ZINC000466160459    0.4900
     32 O32        -9.3404   -0.7688   59.2972 O.2     1  ZINC000466160459   -0.4700
     33 C33       -12.2875    0.6224   55.1668 C.3     1  ZINC000466160459    0.1200
     34 H34       -13.7223   -5.7894   56.6126 H       1  ZINC000466160459    0.0900
     35 H35       -14.7976   -5.1614   55.3409 H       1  ZINC000466160459    0.0400
     36 H36       -13.6898   -6.5082   54.9845 H       1  ZINC000466160459    0.0400
     37 H37       -12.6419   -5.1983   53.1694 H       1  ZINC000466160459    0.0600
     38 H38       -13.8177   -3.9071   53.5136 H       1  ZINC000466160459    0.0700
     39 H39       -10.8503   -3.5097   54.0118 H       1  ZINC000466160459    0.0800
     40 H40       -11.5636   -3.2270   52.4058 H       1  ZINC000466160459    0.0800
     41 H41       -12.7576   -1.8617   54.7345 H       1  ZINC000466160459    0.4000
     42 H42       -11.7414    1.5414   51.8900 H       1  ZINC000466160459    0.0700
     43 H43       -11.9495    2.5811   53.3194 H       1  ZINC000466160459    0.0700
     44 H44        -9.8055    0.4324   52.9945 H       1  ZINC000466160459    0.1000
     45 H45        -9.5438    2.1850   52.8202 H       1  ZINC000466160459    0.0700
     46 H46        -7.8340    1.8600   54.6306 H       1  ZINC000466160459    0.0400
     47 H47        -8.3535    1.4082   56.2720 H       1  ZINC000466160459    0.0800
     48 H48        -8.2944    0.1779   54.9869 H       1  ZINC000466160459    0.0600
     49 H49       -12.1647   -1.1497   56.7847 H       1  ZINC000466160459    0.3900
     50 H50       -12.1457   -3.5757   57.2922 H       1  ZINC000466160459    0.0900
     51 H51       -11.3173   -4.0175   58.8074 H       1  ZINC000466160459    0.0900
     52 H52       -13.2455   -1.6631   58.5448 H       1  ZINC000466160459    0.0700
     53 H53       -13.7215   -3.2762   59.1364 H       1  ZINC000466160459    0.1000
     54 H54       -13.1234   -1.6201   60.9658 H       1  ZINC000466160459    0.0900
     55 H55       -12.1847   -3.1275   60.9971 H       1  ZINC000466160459    0.0800
     56 H56        -7.8997    0.3839   64.2062 H       1  ZINC000466160459    0.0700
     57 H57        -9.3200    0.5529   65.2657 H       1  ZINC000466160459    0.0900
     58 H58        -8.7305   -1.0661   64.8191 H       1  ZINC000466160459    0.0900
     59 H59       -10.7203    1.8927   63.4614 H       1  ZINC000466160459    0.1800
     60 H60       -11.9340    1.1634   61.2521 H       1  ZINC000466160459    0.1500
     61 H61       -12.7215    1.5619   55.5092 H       1  ZINC000466160459    0.0900
     62 H62       -12.7938   -0.2136   55.6492 H       1  ZINC000466160459    0.0700
@<TRIPOS>BOND
     1     1     2    1
     2     1    34    1
     3     1    35    1
     4     1    36    1
     5     2     3    1
     6     3     4    1
     7     3    37    1
     8     3    38    1
     9     4     5    1
    10     4    39    1
    11     4    40    1
    12     5     6   am
    13     5    41    1
    14     6     7    2
    15     6     8    1
    16     8     9    1
    17     8    33    1
    18     8    10    1
    19    10    11    1
    20    10    42    1
    21    10    43    1
    22    11    12    1
    23    11    44    1
    24    11    45    1
    25    12    13    1
    26    12    14    1
    27    12    15    1
    28    14    46    1
    29    14    47    1
    30    14    48    1
    31    15    16   am
    32    15    33    1
    33    16    17    2
    34    16    18   am
    35    18    19    1
    36    18    49    1
    37    19    20    1
    38    19    31    1
    39    19    21    1
    40    21    22    1
    41    21    50    1
    42    21    51    1
    43    22    23    1
    44    22    52    1
    45    22    53    1
    46    23    24    1
    47    23    54    1
    48    23    55    1
    49    24    25    1
    50    24    31   am
    51    25    30    1
    52    25    26    2
    53    26    27    1
    54    27    28    1
    55    27    29    1
    56    28    56    1
    57    28    57    1
    58    28    58    1
    59    29    30    2
    60    29    59    1
    61    30    60    1
    62    31    32    2
    63    33    61    1
    64    33    62    1
@<TRIPOS>SUBSTRUCTURE
     1 ZINC000466160459        1 TEMP              0 ****  ****    0 ROOT


##########                                Name:    ZINC000740930783
##########                DOCK_Rotatable_Bonds:                  11
##########                         Heavy_Atoms:                  27
##########                    Molecular_Weight:             413.257
##########                DOCK_Rotatable_Bonds:                  11
##########                       Formal_Charge:          -0.0100004
##########                     HBond_Acceptors:                   9
##########                        HBond_Donors:                   4
##########                         Heavy_Atoms:                  27
##########                          Grid_Score:          -35.973164
##########                     Grid_vdw_energy:          -32.815548
##########                      Grid_es_energy:           -3.157616
##########           Internal_energy_repulsive:           10.469301

@<TRIPOS>MOLECULE
ZINC000740930783
 45 46 1 0 0
SMALL
USER_CHARGES


@<TRIPOS>ATOM
      1 C1        -14.7157   -2.5820   60.2565 C.3     1  ZINC000740930783    0.0200
      2 O2        -13.6747   -1.9006   59.5534 O.3     1  ZINC000740930783   -0.3000
      3 C3        -12.4752   -1.7871   60.1843 C.ar    1  ZINC000740930783    0.1200
      4 C4        -12.3011   -0.8357   61.1705 C.ar    1  ZINC000740930783   -0.1400
      5 C5        -11.0676   -0.7216   61.8175 C.ar    1  ZINC000740930783   -0.0800
      6 C6        -10.8767    0.2932   62.8723 C.2     1  ZINC000740930783    0.5600
      7 O7        -11.6904    1.1859   63.0113 O.2     1  ZINC000740930783   -0.5300
      8 N8         -9.8005    0.2302   63.6812 N.am    1  ZINC000740930783   -0.7200
      9 C9         -9.6103    1.2384   64.7270 C.3     1  ZINC000740930783    0.0900
     10 C10        -8.2291    1.0612   65.3609 C.3     1  ZINC000740930783    0.1400
     11 H11        -7.4725    1.0184   64.5775 H       1  ZINC000740930783    0.1200
     12 O12        -8.2033   -0.1524   66.1150 O.3     1  ZINC000740930783   -0.5500
     13 C13        -7.9420    2.2257   66.2733 C.ar    1  ZINC000740930783   -0.1100
     14 C14        -8.9800    2.8700   66.9192 C.ar    1  ZINC000740930783   -0.1000
     15 C15        -8.7168    3.9385   67.7564 C.ar    1  ZINC000740930783   -0.1100
     16 C16        -7.4155    4.3632   67.9473 C.ar    1  ZINC000740930783   -0.1000
     17 C17        -6.3762    3.7196   67.3017 C.ar    1  ZINC000740930783   -0.1100
     18 C18        -6.6384    2.6466   66.4689 C.ar    1  ZINC000740930783   -0.0300
     19 Cl19       -5.3340    1.8378   65.6579 Cl      1  ZINC000740930783   -0.0600
     20 C20       -10.0157   -1.5701   61.4643 C.ar    1  ZINC000740930783   -0.1000
     21 C21       -10.1960   -2.5181   60.4787 C.ar    1  ZINC000740930783   -0.0200
     22 Cl22       -8.8881   -3.5723   60.0411 Cl      1  ZINC000740930783   -0.0300
     23 C23       -11.4237   -2.6346   59.8397 C.ar    1  ZINC000740930783    0.0900
     24 O24       -11.5967   -3.5695   58.8698 O.3     1  ZINC000740930783   -0.2900
     25 C25       -11.3365   -3.1645   57.5244 C.3     1  ZINC000740930783    0.0400
     26 C26       -11.9344   -4.1687   56.5728 C.2     1  ZINC000740930783    0.5200
     27 N27       -12.2306   -5.4112   57.0028 N.am    1  ZINC000740930783   -0.8500
     28 O28       -12.1490   -3.8587   55.4202 O.2     1  ZINC000740930783   -0.5100
     29 H29       -14.4005   -3.6029   60.4722 H       1  ZINC000740930783    0.0600
     30 H30       -14.9243   -2.0610   61.1910 H       1  ZINC000740930783    0.0600
     31 H31       -15.6162   -2.6017   59.6426 H       1  ZINC000740930783    0.1100
     32 H32       -13.1163   -0.1810   61.4408 H       1  ZINC000740930783    0.1600
     33 H33        -9.1521   -0.4827   63.5710 H       1  ZINC000740930783    0.4100
     34 H34        -9.6841    2.2341   64.2894 H       1  ZINC000740930783    0.0900
     35 H35       -10.3787    1.1192   65.4907 H       1  ZINC000740930783    0.0800
     36 H36        -8.8457   -0.1804   66.8373 H       1  ZINC000740930783    0.3800
     37 H37        -9.9971    2.5390   66.7698 H       1  ZINC000740930783    0.1300
     38 H38        -9.5284    4.4417   68.2609 H       1  ZINC000740930783    0.1300
     39 H39        -7.2104    5.1983   68.6007 H       1  ZINC000740930783    0.1400
     40 H40        -5.3594    4.0516   67.4510 H       1  ZINC000740930783    0.1400
     41 H41        -9.0614   -1.4837   61.9625 H       1  ZINC000740930783    0.1500
     42 H42       -11.7822   -2.1857   57.3468 H       1  ZINC000740930783    0.0900
     43 H43       -10.2599   -3.1081   57.3637 H       1  ZINC000740930783    0.0900
     44 H44       -12.6165   -6.0572   56.3907 H       1  ZINC000740930783    0.4000
     45 H45       -12.0578   -5.6595   57.9245 H       1  ZINC000740930783    0.4100
@<TRIPOS>BOND
     1     1     2    1
     2     1    29    1
     3     1    30    1
     4     1    31    1
     5     2     3    1
     6     3    23   ar
     7     3     4   ar
     8     4     5   ar
     9     4    32    1
    10     5     6    1
    11     5    20   ar
    12     6     7    2
    13     6     8   am
    14     8     9    1
    15     8    33    1
    16     9    10    1
    17     9    34    1
    18     9    35    1
    19    10    11    1
    20    10    12    1
    21    10    13    1
    22    12    36    1
    23    13    18   ar
    24    13    14   ar
    25    14    15   ar
    26    14    37    1
    27    15    16   ar
    28    15    38    1
    29    16    17   ar
    30    16    39    1
    31    17    18   ar
    32    17    40    1
    33    18    19    1
    34    20    21   ar
    35    20    41    1
    36    21    22    1
    37    21    23   ar
    38    23    24    1
    39    24    25    1
    40    25    26    1
    41    25    42    1
    42    25    43    1
    43    26    27   am
    44    26    28    2
    45    27    44    1
    46    27    45    1
@<TRIPOS>SUBSTRUCTURE
     1 ZINC000740930783        1 TEMP              0 ****  ****    0 ROOT


##########                                Name:     oleObject42.pdb
##########                DOCK_Rotatable_Bonds:                   9
##########                         Heavy_Atoms:                  36
##########                    Molecular_Weight:             527.493
##########                DOCK_Rotatable_Bonds:                   9
##########                       Formal_Charge:         9.99384e-05
##########                     HBond_Acceptors:                   8
##########                        HBond_Donors:                   0
##########                         Heavy_Atoms:                  36
##########                          Grid_Score:          -35.972004
##########                     Grid_vdw_energy:          -35.403191
##########                      Grid_es_energy:           -0.568812
##########           Internal_energy_repulsive:          103.194870

@<TRIPOS>MOLECULE
oleObject42.pdb
 68 71 1 0 0
SMALL
NO_CHARGES


@<TRIPOS>ATOM
      1 C          -7.3822    3.4115   51.6831 C.ar    1  UNL        -0.0435
      2 C          -7.4513    3.0877   53.0458 C.ar    1  UNL        -0.0559
      3 C          -8.6479    2.5596   53.5661 C.ar    1  UNL        -0.0272
      4 C          -9.7431    2.3758   52.6847 C.ar    1  UNL         0.0699
      5 N          -9.6627    2.6927   51.3713 N.ar    1  UNL        -0.2586
      6 C          -8.5140    3.1966   50.8831 C.ar    1  UNL         0.0272
      7 C         -11.0849    1.8028   53.1722 C.3     1  UNL         0.1101
      8 C         -11.3668    0.3818   52.6467 C.ar    1  UNL         0.0699
      9 C         -10.3126   -0.5245   52.3689 C.ar    1  UNL        -0.0272
     10 C         -10.6393   -1.8038   51.8807 C.ar    1  UNL        -0.0559
     11 C         -11.9872   -2.1373   51.6851 C.ar    1  UNL        -0.0435
     12 C         -12.9664   -1.1784   51.9826 C.ar    1  UNL         0.0272
     13 N         -12.6639    0.0476   52.4485 N.ar    1  UNL        -0.2586
     14 C          -8.8478   -0.1581   52.5820 C.3     1  UNL        -0.0379
     15 N         -11.2818    1.9649   54.6395 N.am    1  UNL        -0.2902
     16 C         -11.2940    0.8881   55.5272 C.2     1  UNL         0.2180
     17 O         -11.4033   -0.2527   55.1088 O.2     1  UNL        -0.2772
     18 C         -11.5096    1.2116   57.0260 C.3     1  UNL         0.0385
     19 C         -10.1708    1.2015   57.8027 C.3     1  UNL        -0.0289
     20 C          -9.6454   -0.2299   58.0436 C.3     1  UNL        -0.0010
     21 N         -10.6541   -1.0690   58.7260 N.4     1  UNL        -0.3010
     22 C         -11.9522   -1.1412   58.0196 C.3     1  UNL        -0.0010
     23 C         -12.5283    0.2611   57.7083 C.3     1  UNL        -0.0289
     24 C         -10.1399   -2.3813   59.1766 C.3     1  UNL         0.0222
     25 C          -9.6274   -2.3893   60.6342 C.3     1  UNL         0.0661
     26 O         -10.7263   -2.0371   61.4892 O.3     1  UNL        -0.3432
     27 C         -10.5757   -0.9949   62.3705 C.ar    1  UNL         0.0937
     28 C          -9.3155   -0.7661   62.9482 C.ar    1  UNL        -0.0288
     29 C          -9.1390    0.2927   63.8543 C.ar    1  UNL        -0.0408
     30 C         -10.2251    1.1204   64.1844 C.ar    1  UNL         0.0422
     31 C         -11.4877    0.8910   63.6125 C.ar    1  UNL        -0.0221
     32 C         -11.6663   -0.1674   62.7057 C.ar    1  UNL         0.0723
     33 CL        -13.2536   -0.4359   62.0096 Cl      1  UNL        -0.0814
     34 CL        -10.0054    2.4398   65.3139 Cl      1  UNL        -0.0843
     35 C         -11.6325    3.3198   55.1106 C.3     1  UNL         0.0038
     36 C          -8.7248    2.2032   55.0467 C.3     1  UNL        -0.0379
     37 H          -6.4710    3.8191   51.2552 H       1  UNL         0.0639
     38 H          -6.5874    3.2436   53.6859 H       1  UNL         0.0627
     39 H          -8.5018    3.4335   49.8199 H       1  UNL         0.0840
     40 H         -11.8476    2.4323   52.7066 H       1  UNL         0.0643
     41 H          -9.8621   -2.5292   51.6571 H       1  UNL         0.0627
     42 H         -12.2678   -3.1174   51.3109 H       1  UNL         0.0639
     43 H         -14.0246   -1.3968   51.8448 H       1  UNL         0.0840
     44 H          -8.5469    0.6666   51.9241 H       1  UNL         0.0280
     45 H          -8.1847   -1.0055   52.3679 H       1  UNL         0.0280
     46 H          -8.6609    0.1461   53.6192 H       1  UNL         0.0280
     47 H         -11.9355    2.2169   57.1058 H       1  UNL         0.0402
     48 H         -10.3187    1.6894   58.7748 H       1  UNL         0.0288
     49 H          -9.4137    1.7878   57.2686 H       1  UNL         0.0288
     50 H          -8.7344   -0.1724   58.6532 H       1  UNL         0.0431
     51 H          -9.3738   -0.6761   57.0784 H       1  UNL         0.0431
     52 H         -12.6785   -1.6892   58.6335 H       1  UNL         0.0431
     53 H         -11.8363   -1.6958   57.0810 H       1  UNL         0.0431
     54 H         -12.8495    0.7164   58.6541 H       1  UNL         0.0288
     55 H         -13.4281    0.1662   57.0870 H       1  UNL         0.0288
     56 H          -9.3212   -2.6959   58.5169 H       1  UNL         0.0455
     57 H         -10.9353   -3.1319   59.0834 H       1  UNL         0.0455
     58 H          -8.8139   -1.6629   60.7516 H       1  UNL         0.0586
     59 H          -9.2501   -3.3847   60.8989 H       1  UNL         0.0586
     60 H          -8.4780   -1.4087   62.6926 H       1  UNL         0.0652
     61 H          -8.1637    0.4695   64.2991 H       1  UNL         0.0639
     62 H         -12.3261    1.5311   63.8721 H       1  UNL         0.0655
     63 H         -11.1703    4.0824   54.4715 H       1  UNL         0.0433
     64 H         -11.2717    3.4651   56.1367 H       1  UNL         0.0433
     65 H         -12.7222    3.4463   55.0928 H       1  UNL         0.0433
     66 H          -7.7679    2.3782   55.5541 H       1  UNL         0.0280
     67 H          -8.9778    1.1456   55.1888 H       1  UNL         0.0280
     68 H          -9.4814    2.8086   55.5604 H       1  UNL         0.0280
@<TRIPOS>BOND
     1     1     2   ar
     2     1     6   ar
     3     1    37    1
     4     2     3   ar
     5     2    38    1
     6     3     4   ar
     7     3    36    1
     8     4     5   ar
     9     4     7    1
    10     5     6   ar
    11     6    39    1
    12     7     8    1
    13     7    15    1
    14     7    40    1
    15     8     9   ar
    16     8    13   ar
    17     9    10   ar
    18     9    14    1
    19    10    11   ar
    20    10    41    1
    21    11    12   ar
    22    11    42    1
    23    12    13   ar
    24    12    43    1
    25    14    44    1
    26    14    45    1
    27    14    46    1
    28    15    16   am
    29    15    35    1
    30    16    17    2
    31    16    18    1
    32    18    19    1
    33    18    23    1
    34    18    47    1
    35    19    20    1
    36    19    48    1
    37    19    49    1
    38    20    21    1
    39    20    50    1
    40    20    51    1
    41    21    22    1
    42    21    24    1
    43    22    23    1
    44    22    52    1
    45    22    53    1
    46    23    54    1
    47    23    55    1
    48    24    25    1
    49    24    56    1
    50    24    57    1
    51    25    26    1
    52    25    58    1
    53    25    59    1
    54    26    27    1
    55    27    28   ar
    56    27    32   ar
    57    28    29   ar
    58    28    60    1
    59    29    30   ar
    60    29    61    1
    61    30    31   ar
    62    30    34    1
    63    31    32   ar
    64    31    62    1
    65    32    33    1
    66    35    63    1
    67    35    64    1
    68    35    65    1
    69    36    66    1
    70    36    67    1
    71    36    68    1
@<TRIPOS>SUBSTRUCTURE
     1 UNL         1 TEMP              0 ****  ****    0 ROOT


##########                                Name:    ZINC000031496632
##########                DOCK_Rotatable_Bonds:                   8
##########                         Heavy_Atoms:                  30
##########                    Molecular_Weight:             423.539
##########                DOCK_Rotatable_Bonds:                   8
##########                       Formal_Charge:          -0.0100009
##########                     HBond_Acceptors:                   8
##########                        HBond_Donors:                   1
##########                         Heavy_Atoms:                  30
##########                          Grid_Score:          -35.969425
##########                     Grid_vdw_energy:          -35.393177
##########                      Grid_es_energy:           -0.576249
##########           Internal_energy_repulsive:           13.271396

@<TRIPOS>MOLECULE
ZINC000031496632
 55 58 1 0 0
SMALL
USER_CHARGES


@<TRIPOS>ATOM
      1 C1         -2.8328    2.9703   48.5444 C.3     1  ZINC000031496632   -0.1600
      2 C2         -2.4065    2.2137   49.8041 C.3     1  ZINC000031496632    0.1600
      3 C3         -1.0280    2.7042   50.2515 C.3     1  ZINC000031496632   -0.1600
      4 N4         -3.3806    2.4544   50.8715 N.pl3   1  ZINC000031496632   -0.3900
      5 N5         -3.1421    3.1942   52.0338 N.2     1  ZINC000031496632   -0.2300
      6 C6         -4.2115    3.2178   52.7767 C.2     1  ZINC000031496632    0.0800
      7 C7         -5.2455    2.4520   52.0893 C.ar    1  ZINC000031496632   -0.2100
      8 C8         -6.5749    2.1267   52.3819 C.ar    1  ZINC000031496632    0.0100
      9 C9         -7.2729    1.3553   51.4659 C.ar    1  ZINC000031496632    0.0500
     10 N10        -8.6064    1.0015   51.7097 N.am    1  ZINC000031496632   -0.6600
     11 C11        -9.5147    1.9546   51.9975 C.2     1  ZINC000031496632    0.5500
     12 O12        -9.1768    3.1220   52.0457 O.2     1  ZINC000031496632   -0.4900
     13 C13       -10.9174    1.5825   52.2539 C.ar    1  ZINC000031496632   -0.1300
     14 C14       -11.9281    2.0138   51.3911 C.ar    1  ZINC000031496632   -0.0600
     15 C15       -13.2375    1.6626   51.6365 C.ar    1  ZINC000031496632   -0.1400
     16 C16       -13.5597    0.8828   52.7361 C.ar    1  ZINC000031496632   -0.0600
     17 C17       -12.5739    0.4491   53.5982 C.ar    1  ZINC000031496632   -0.1500
     18 C18       -11.2461    0.7872   53.3641 C.ar    1  ZINC000031496632   -0.0600
     19 S19        -9.9843    0.2344   54.4627 S.3     1  ZINC000031496632    0.0900
     20 C20       -10.9226   -0.3481   55.9017 C.3     1  ZINC000031496632   -0.2000
     21 C21        -9.9848   -0.5524   57.0636 C.2     1  ZINC000031496632    0.5500
     22 O22        -8.9359    0.0546   57.1103 O.2     1  ZINC000031496632   -0.5200
     23 N23       -10.3117   -1.4099   58.0507 N.am    1  ZINC000031496632   -0.6200
     24 C24       -11.5415   -2.2128   58.1159 C.3     1  ZINC000031496632    0.1000
     25 C25       -11.4927   -3.0200   59.4303 C.3     1  ZINC000031496632   -0.1300
     26 C26       -10.5057   -2.2017   60.3041 C.3     1  ZINC000031496632   -0.1300
     27 C27        -9.4923   -1.7028   59.2407 C.3     1  ZINC000031496632    0.1000
     28 C28        -6.6353    0.9354   50.2997 C.ar    1  ZINC000031496632    0.1600
     29 N29        -5.3850    1.2542   50.0479 N.ar    1  ZINC000031496632   -0.4900
     30 C30        -4.6713    1.9953   50.8862 C.ar    1  ZINC000031496632    0.3000
     31 H31        -2.1081    2.7914   47.7502 H       1  ZINC000031496632    0.0800
     32 H32        -3.8149    2.6210   48.2256 H       1  ZINC000031496632    0.0600
     33 H33        -2.8793    4.0378   48.7599 H       1  ZINC000031496632    0.0700
     34 H34        -2.3599    1.1463   49.5884 H       1  ZINC000031496632    0.1100
     35 H35        -0.3033    2.5252   49.4572 H       1  ZINC000031496632    0.0800
     36 H36        -1.0745    3.7717   50.4670 H       1  ZINC000031496632    0.0700
     37 H37        -0.7242    2.1652   51.1488 H       1  ZINC000031496632    0.0600
     38 H38        -4.3143    3.7146   53.7302 H       1  ZINC000031496632    0.2000
     39 H39        -7.0427    2.4661   53.2943 H       1  ZINC000031496632    0.1500
     40 H40        -8.8759    0.0705   51.6713 H       1  ZINC000031496632    0.4100
     41 H41       -11.6833    2.6222   50.5331 H       1  ZINC000031496632    0.1300
     42 H42       -14.0175    1.9970   50.9682 H       1  ZINC000031496632    0.1300
     43 H43       -14.5894    0.6134   52.9195 H       1  ZINC000031496632    0.1300
     44 H44       -12.8335   -0.1577   54.4531 H       1  ZINC000031496632    0.1300
     45 H45       -11.6757    0.3932   56.1687 H       1  ZINC000031496632    0.1100
     46 H46       -11.4114   -1.2917   55.6590 H       1  ZINC000031496632    0.1100
     47 H47       -12.4125   -1.5574   58.1155 H       1  ZINC000031496632    0.0700
     48 H48       -11.5861   -2.8924   57.2649 H       1  ZINC000031496632    0.0700
     49 H49       -12.4778   -3.0596   59.8953 H       1  ZINC000031496632    0.0900
     50 H50       -11.1085   -4.0243   59.2520 H       1  ZINC000031496632    0.0800
     51 H51       -11.0123   -1.3666   60.7880 H       1  ZINC000031496632    0.0800
     52 H52       -10.0152   -2.8386   61.0402 H       1  ZINC000031496632    0.0900
     53 H53        -8.7595   -2.4793   59.0214 H       1  ZINC000031496632    0.0700
     54 H54        -8.9945   -0.7970   59.5867 H       1  ZINC000031496632    0.0800
     55 H55        -7.1806    0.3345   49.5870 H       1  ZINC000031496632    0.1700
@<TRIPOS>BOND
     1     1     2    1
     2     1    31    1
     3     1    32    1
     4     1    33    1
     5     2     3    1
     6     2     4    1
     7     2    34    1
     8     3    35    1
     9     3    36    1
    10     3    37    1
    11     4    30    1
    12     4     5    1
    13     5     6    2
    14     6     7    1
    15     6    38    1
    16     7    30   ar
    17     7     8   ar
    18     8     9   ar
    19     8    39    1
    20     9    10    1
    21     9    28   ar
    22    10    11   am
    23    10    40    1
    24    11    12    2
    25    11    13    1
    26    13    18   ar
    27    13    14   ar
    28    14    15   ar
    29    14    41    1
    30    15    16   ar
    31    15    42    1
    32    16    17   ar
    33    16    43    1
    34    17    18   ar
    35    17    44    1
    36    18    19    1
    37    19    20    1
    38    20    21    1
    39    20    45    1
    40    20    46    1
    41    21    22    2
    42    21    23   am
    43    23    27    1
    44    23    24    1
    45    24    25    1
    46    24    47    1
    47    24    48    1
    48    25    26    1
    49    25    49    1
    50    25    50    1
    51    26    27    1
    52    26    51    1
    53    26    52    1
    54    27    53    1
    55    27    54    1
    56    28    29   ar
    57    28    55    1
    58    29    30   ar
@<TRIPOS>SUBSTRUCTURE
     1 ZINC000031496632        1 TEMP              0 ****  ****    0 ROOT


##########                                Name:    ZINC000182378855
##########                DOCK_Rotatable_Bonds:                   8
##########                         Heavy_Atoms:                  27
##########                    Molecular_Weight:              394.83
##########                DOCK_Rotatable_Bonds:                   8
##########                       Formal_Charge:          -0.0200001
##########                     HBond_Acceptors:                   8
##########                        HBond_Donors:                   1
##########                         Heavy_Atoms:                  27
##########                          Grid_Score:          -35.954548
##########                     Grid_vdw_energy:          -36.316059
##########                      Grid_es_energy:            0.361510
##########           Internal_energy_repulsive:            9.407897

@<TRIPOS>MOLECULE
ZINC000182378855
 47 49 1 0 0
SMALL
USER_CHARGES


@<TRIPOS>ATOM
      1 C1         -3.6270    2.0863   49.4789 C.3     1  ZINC000182378855    0.0300
      2 O2         -4.7371    2.1134   50.3784 O.3     1  ZINC000182378855   -0.3900
      3 C3         -5.5738    0.9574   50.3040 C.3     1  ZINC000182378855    0.0600
      4 C4         -6.6901    1.0679   51.3444 C.3     1  ZINC000182378855    0.0700
      5 O5         -7.5352   -0.0814   51.2604 O.3     1  ZINC000182378855   -0.2900
      6 C6         -8.5027   -0.2049   52.2037 C.ar    1  ZINC000182378855    0.3300
      7 C7         -9.3776   -1.2818   52.1524 C.ar    1  ZINC000182378855   -0.1300
      8 C8        -10.3678   -1.3951   53.1301 C.ar    1  ZINC000182378855   -0.0600
      9 C9        -11.3238   -2.5271   53.1170 C.2     1  ZINC000182378855    0.5600
     10 O10       -11.3174   -3.3169   52.1936 O.2     1  ZINC000182378855   -0.5200
     11 N11       -12.2004   -2.6805   54.1290 N.am    1  ZINC000182378855   -0.7100
     12 C12       -13.1445   -3.8008   54.1170 C.3     1  ZINC000182378855    0.1200
     13 H13       -12.6913   -4.6758   53.6511 H       1  ZINC000182378855    0.1100
     14 C14       -14.4434   -3.4061   53.3790 C.3     1  ZINC000182378855   -0.1700
     15 C15       -15.5429   -3.5430   54.4554 C.3     1  ZINC000182378855    0.0400
     16 O16       -14.8481   -3.3983   55.7133 O.3     1  ZINC000182378855   -0.3600
     17 C17       -13.6129   -4.1293   55.5519 C.3     1  ZINC000182378855    0.1100
     18 H18       -13.7888   -5.1998   55.6578 H       1  ZINC000182378855    0.1000
     19 C19       -12.5918   -3.6623   56.5570 C.ar    1  ZINC000182378855   -0.0500
     20 C20       -11.6465   -4.5460   57.0427 C.ar    1  ZINC000182378855   -0.1100
     21 C21       -10.7053   -4.1179   57.9606 C.ar    1  ZINC000182378855   -0.0800
     22 C22       -10.7159   -2.8076   58.4022 C.ar    1  ZINC000182378855   -0.0700
     23 Cl23       -9.5383   -2.2715   59.5596 Cl      1  ZINC000182378855   -0.0400
     24 C24       -11.6670   -1.9225   57.9198 C.ar    1  ZINC000182378855    0.1200
     25 F25       -11.6785   -0.6418   58.3497 F       1  ZINC000182378855   -0.1200
     26 C26       -12.6047   -2.3517   56.9967 C.ar    1  ZINC000182378855   -0.1300
     27 C27       -10.4329   -0.4113   54.1230 C.ar    1  ZINC000182378855   -0.1900
     28 C28        -9.5238    0.6270   54.1006 C.ar    1  ZINC000182378855    0.1400
     29 N29        -8.5981    0.6986   53.1640 N.ar    1  ZINC000182378855   -0.5200
     30 H30        -3.9915    2.0184   48.4539 H       1  ZINC000182378855    0.0400
     31 H31        -3.0415    2.9981   49.5968 H       1  ZINC000182378855    0.0900
     32 H32        -3.0012    1.2216   49.7001 H       1  ZINC000182378855    0.0400
     33 H33        -6.0111    0.8888   49.3079 H       1  ZINC000182378855    0.0600
     34 H34        -4.9796    0.0654   50.5022 H       1  ZINC000182378855    0.0700
     35 H35        -6.2533    1.1256   52.3414 H       1  ZINC000182378855    0.0800
     36 H36        -7.2778    1.9658   51.1528 H       1  ZINC000182378855    0.0800
     37 H37        -9.2937   -2.0200   51.3685 H       1  ZINC000182378855    0.1600
     38 H38       -12.2063   -2.0492   54.8655 H       1  ZINC000182378855    0.4000
     39 H39       -14.3831   -2.3776   53.0233 H       1  ZINC000182378855    0.0900
     40 H40       -14.6337   -4.0876   52.5499 H       1  ZINC000182378855    0.0900
     41 H41       -16.2869   -2.7548   54.3402 H       1  ZINC000182378855    0.1000
     42 H42       -16.0162   -4.5228   54.3920 H       1  ZINC000182378855    0.0700
     43 H43       -11.6407   -5.5708   56.7019 H       1  ZINC000182378855    0.1500
     44 H44        -9.9645   -4.8083   58.3361 H       1  ZINC000182378855    0.1500
     45 H45       -13.3462   -1.6628   56.6197 H       1  ZINC000182378855    0.1500
     46 H46       -11.1844   -0.4639   54.8968 H       1  ZINC000182378855    0.1400
     47 H47        -9.5684    1.3897   54.8640 H       1  ZINC000182378855    0.1700
@<TRIPOS>BOND
     1     1     2    1
     2     1    30    1
     3     1    31    1
     4     1    32    1
     5     2     3    1
     6     3     4    1
     7     3    33    1
     8     3    34    1
     9     4     5    1
    10     4    35    1
    11     4    36    1
    12     5     6    1
    13     6    29   ar
    14     6     7   ar
    15     7     8   ar
    16     7    37    1
    17     8     9    1
    18     8    27   ar
    19     9    10    2
    20     9    11   am
    21    11    12    1
    22    11    38    1
    23    12    13    1
    24    12    17    1
    25    12    14    1
    26    14    15    1
    27    14    39    1
    28    14    40    1
    29    15    16    1
    30    15    41    1
    31    15    42    1
    32    16    17    1
    33    17    18    1
    34    17    19    1
    35    19    26   ar
    36    19    20   ar
    37    20    21   ar
    38    20    43    1
    39    21    22   ar
    40    21    44    1
    41    22    23    1
    42    22    24   ar
    43    24    25    1
    44    24    26   ar
    45    26    45    1
    46    27    28   ar
    47    27    46    1
    48    28    29   ar
    49    28    47    1
@<TRIPOS>SUBSTRUCTURE
     1 ZINC000182378855        1 TEMP              0 ****  ****    0 ROOT


##########                                Name:    ZINC000788423111
##########                DOCK_Rotatable_Bonds:                   7
##########                         Heavy_Atoms:                  23
##########                    Molecular_Weight:             399.243
##########                DOCK_Rotatable_Bonds:                   7
##########                       Formal_Charge:         1.04308e-07
##########                     HBond_Acceptors:                   8
##########                        HBond_Donors:                   1
##########                         Heavy_Atoms:                  23
##########                          Grid_Score:          -35.930569
##########                     Grid_vdw_energy:          -35.315331
##########                      Grid_es_energy:           -0.615238
##########           Internal_energy_repulsive:            4.632447

@<TRIPOS>MOLECULE
ZINC000788423111
 35 37 1 0 0
SMALL
USER_CHARGES


@<TRIPOS>ATOM
      1 O1        -15.0379   -5.2137   55.1104 O.3     1  ZINC000788423111   -0.5400
      2 C2        -13.7340   -4.6614   54.9180 C.3     1  ZINC000788423111    0.1000
      3 H3        -13.0856   -5.4105   54.4635 H       1  ZINC000788423111    0.1300
      4 C4        -13.1550   -4.2382   56.2694 C.3     1  ZINC000788423111    0.0300
      5 O5        -11.7354   -4.4024   56.2520 O.3     1  ZINC000788423111   -0.2900
      6 C6        -11.0216   -3.6971   57.1683 C.ar    1  ZINC000788423111    0.1700
      7 C7        -10.5120   -4.3330   58.2903 C.ar    1  ZINC000788423111   -0.2400
      8 C8         -9.7854   -3.6128   59.2223 C.ar    1  ZINC000788423111    0.1500
      9 F9         -9.2885   -4.2312   60.3158 F       1  ZINC000788423111   -0.1300
     10 C10        -9.5672   -2.2586   59.0340 C.ar    1  ZINC000788423111   -0.1600
     11 C11       -10.0756   -1.6234   57.9151 C.ar    1  ZINC000788423111   -0.0300
     12 Br12       -9.7758    0.2263   57.6609 Br      1  ZINC000788423111   -0.0200
     13 C13       -10.7969   -2.3409   56.9795 C.ar    1  ZINC000788423111   -0.1300
     14 C14       -13.8272   -3.4420   53.9987 C.3     1  ZINC000788423111    0.1000
     15 N15       -12.5187   -3.1872   53.3913 N.pl3   1  ZINC000788423111   -0.1300
     16 N16       -11.7194   -4.0896   52.9398 N.2     1  ZINC000788423111   -0.0500
     17 N17       -10.6602   -3.5181   52.4760 N.2     1  ZINC000788423111   -0.2600
     18 C18       -10.8127   -2.1961   52.6495 C.2     1  ZINC000788423111    0.2400
     19 C19        -9.8515   -1.1379   52.2695 C.2     1  ZINC000788423111   -0.1300
     20 C20       -10.0280    0.1824   52.4715 C.2     1  ZINC000788423111   -0.0800
     21 C21        -8.9899    0.9772   52.0305 C.2     1  ZINC000788423111   -0.1400
     22 C22        -7.9705    0.3185   51.4720 C.2     1  ZINC000788423111   -0.2000
     23 S23        -8.2979   -1.4092   51.4907 S.3     1  ZINC000788423111    0.1700
     24 N24       -11.9903   -2.0243   53.2204 N.2     1  ZINC000788423111   -0.2900
     25 H25       -15.5405   -5.3296   54.2925 H       1  ZINC000788423111    0.3800
     26 H26       -13.3974   -3.1922   56.4571 H       1  ZINC000788423111    0.0900
     27 H27       -13.5826   -4.8574   57.0580 H       1  ZINC000788423111    0.0800
     28 H28       -10.6823   -5.3894   58.4370 H       1  ZINC000788423111    0.1500
     29 H29        -8.9997   -1.6974   59.7616 H       1  ZINC000788423111    0.1500
     30 H30       -11.1932   -1.8443   56.1061 H       1  ZINC000788423111    0.1500
     31 H31       -14.5605   -3.6329   53.2151 H       1  ZINC000788423111    0.1300
     32 H32       -14.1340   -2.5720   54.5792 H       1  ZINC000788423111    0.1300
     33 H33       -10.9124    0.5868   52.9410 H       1  ZINC000788423111    0.1500
     34 H34        -9.0008    2.0526   52.1294 H       1  ZINC000788423111    0.1500
     35 H35        -7.0780    0.7775   51.0733 H       1  ZINC000788423111    0.1700
@<TRIPOS>BOND
     1     1     2    1
     2     1    25    1
     3     2     3    1
     4     2     4    1
     5     2    14    1
     6     4     5    1
     7     4    26    1
     8     4    27    1
     9     5     6    1
    10     6    13   ar
    11     6     7   ar
    12     7     8   ar
    13     7    28    1
    14     8     9    1
    15     8    10   ar
    16    10    11   ar
    17    10    29    1
    18    11    12    1
    19    11    13   ar
    20    13    30    1
    21    14    15    1
    22    14    31    1
    23    14    32    1
    24    15    24    1
    25    15    16    1
    26    16    17    2
    27    17    18    1
    28    18    19    1
    29    18    24    2
    30    19    23    1
    31    19    20    2
    32    20    21    1
    33    20    33    1
    34    21    22    2
    35    21    34    1
    36    22    23    1
    37    22    35    1
@<TRIPOS>SUBSTRUCTURE
     1 ZINC000788423111        1 TEMP              0 ****  ****    0 ROOT


##########                                Name:    ZINC000609484313
##########                DOCK_Rotatable_Bonds:                  10
##########                         Heavy_Atoms:                  26
##########                    Molecular_Weight:             361.487
##########                DOCK_Rotatable_Bonds:                  10
##########                       Formal_Charge:          -0.0200004
##########                     HBond_Acceptors:                   7
##########                        HBond_Donors:                   1
##########                         Heavy_Atoms:                  26
##########                          Grid_Score:          -35.918606
##########                     Grid_vdw_energy:          -35.876003
##########                      Grid_es_energy:           -0.042602
##########           Internal_energy_repulsive:           28.486309

@<TRIPOS>MOLECULE
ZINC000609484313
 57 58 1 0 0
SMALL
USER_CHARGES


@<TRIPOS>ATOM
      1 C1        -17.1658   -3.4213   53.4148 C.3     1  ZINC000609484313   -0.1500
      2 C2        -15.9211   -2.5317   53.4244 C.3     1  ZINC000609484313   -0.1300
      3 C3        -14.9746   -2.9668   52.3038 C.3     1  ZINC000609484313   -0.1100
      4 C4        -13.8522   -1.9376   52.1559 C.3     1  ZINC000609484313   -0.1100
      5 C5        -12.5501   -2.5196   52.7098 C.3     1  ZINC000609484313    0.0800
      6 H6        -12.4073   -3.5270   52.3190 H       1  ZINC000609484313    0.1200
      7 C7        -11.3929   -1.6497   52.2916 C.2     1  ZINC000609484313    0.4900
      8 O8        -11.5908   -0.5079   51.9339 O.2     1  ZINC000609484313   -0.5000
      9 N9        -10.1379   -2.1406   52.3150 N.am    1  ZINC000609484313   -0.6300
     10 C10        -9.0665   -1.3347   51.9294 C.2     1  ZINC000609484313    0.2400
     11 N11        -8.0261   -1.6964   51.2254 N.2     1  ZINC000609484313   -0.3900
     12 O12        -7.2653   -0.7725   51.0530 O.3     1  ZINC000609484313    0.1000
     13 C13        -7.7097    0.3518   51.6330 C.2     1  ZINC000609484313   -0.0200
     14 C14        -7.0302    1.6969   51.6282 C.3     1  ZINC000609484313   -0.0800
     15 C15        -8.8901    0.0447   52.2177 C.2     1  ZINC000609484313   -0.2300
     16 N16       -12.6207   -2.5689   54.1764 N.3     1  ZINC000609484313   -0.5000
     17 C17       -12.2048   -1.2891   54.7669 C.3     1  ZINC000609484313    0.0400
     18 C18       -12.3679   -1.3549   56.2872 C.3     1  ZINC000609484313    0.0500
     19 N19       -11.5606   -2.4630   56.8164 N.3     1  ZINC000609484313   -0.5100
     20 C20       -11.6311   -2.5122   58.2830 C.3     1  ZINC000609484313    0.1800
     21 H21       -12.6736   -2.5780   58.5946 H       1  ZINC000609484313    0.1200
     22 C22       -10.8979   -3.6920   58.7701 C.1     1  ZINC000609484313    0.1700
     23 N23       -10.3321   -4.6025   59.1460 N.1     1  ZINC000609484313   -0.4200
     24 C24       -11.0034   -1.2448   58.8665 C.3     1  ZINC000609484313   -0.0800
     25 C25       -10.9098   -1.3761   60.3880 C.3     1  ZINC000609484313   -0.1400
     26 C26        -9.6014   -1.0552   58.2838 C.3     1  ZINC000609484313   -0.1500
     27 C27       -11.9766   -3.7427   56.2259 C.3     1  ZINC000609484313    0.0500
     28 C28       -11.8134   -3.6770   54.7056 C.3     1  ZINC000609484313    0.0400
     29 H29       -17.6724   -3.3270   52.4544 H       1  ZINC000609484313    0.0500
     30 H30       -16.8717   -4.4593   53.5701 H       1  ZINC000609484313    0.0500
     31 H31       -17.8401   -3.1113   54.2132 H       1  ZINC000609484313    0.0500
     32 H32       -16.2152   -1.4937   53.2691 H       1  ZINC000609484313    0.0600
     33 H33       -15.4144   -2.6260   54.3850 H       1  ZINC000609484313    0.0600
     34 H34       -14.5463   -3.9391   52.5470 H       1  ZINC000609484313    0.0800
     35 H35       -15.5283   -3.0375   51.3675 H       1  ZINC000609484313    0.0600
     36 H36       -13.7210   -1.6919   51.1021 H       1  ZINC000609484313    0.0700
     37 H37       -14.1114   -1.0353   52.7097 H       1  ZINC000609484313    0.0800
     38 H38        -9.9798   -3.0541   52.6000 H       1  ZINC000609484313    0.4200
     39 H39        -6.0960    1.6300   51.0706 H       1  ZINC000609484313    0.0800
     40 H40        -7.6828    2.4319   51.1572 H       1  ZINC000609484313    0.0900
     41 H41        -6.8203    2.0015   52.6536 H       1  ZINC000609484313    0.0900
     42 H42        -9.5433    0.6957   52.7796 H       1  ZINC000609484313    0.1900
     43 H43       -11.1603   -1.0977   54.5211 H       1  ZINC000609484313    0.0800
     44 H44       -12.8254   -0.4862   54.3690 H       1  ZINC000609484313    0.0800
     45 H45       -12.0326   -0.4169   56.7299 H       1  ZINC000609484313    0.0900
     46 H46       -13.4168   -1.5192   56.5336 H       1  ZINC000609484313    0.0400
     47 H47       -11.6216   -0.3835   58.6135 H       1  ZINC000609484313    0.0800
     48 H48       -10.2916   -2.2375   60.6411 H       1  ZINC000609484313    0.0600
     49 H49       -10.4626   -0.4732   60.8038 H       1  ZINC000609484313    0.0500
     50 H50       -11.9086   -1.5111   60.8032 H       1  ZINC000609484313    0.0700
     51 H51        -9.1186   -0.2064   58.7679 H       1  ZINC000609484313    0.0700
     52 H52        -9.0116   -1.9556   58.4559 H       1  ZINC000609484313    0.0600
     53 H53        -9.6755   -0.8687   57.2125 H       1  ZINC000609484313    0.0500
     54 H54       -11.3560   -4.5457   56.6239 H       1  ZINC000609484313    0.0900
     55 H55       -13.0211   -3.9342   56.4717 H       1  ZINC000609484313    0.0400
     56 H56       -12.1487   -4.6149   54.2629 H       1  ZINC000609484313    0.0800
     57 H57       -10.7644   -3.5126   54.4592 H       1  ZINC000609484313    0.0800
@<TRIPOS>BOND
     1     1     2    1
     2     1    29    1
     3     1    30    1
     4     1    31    1
     5     2     3    1
     6     2    32    1
     7     2    33    1
     8     3     4    1
     9     3    34    1
    10     3    35    1
    11     4     5    1
    12     4    36    1
    13     4    37    1
    14     5     6    1
    15     5     7    1
    16     5    16    1
    17     7     8    2
    18     7     9   am
    19     9    10    1
    20     9    38    1
    21    10    15    1
    22    10    11    2
    23    11    12    1
    24    12    13    1
    25    13    14    1
    26    13    15    2
    27    14    39    1
    28    14    40    1
    29    14    41    1
    30    15    42    1
    31    16    28    1
    32    16    17    1
    33    17    18    1
    34    17    43    1
    35    17    44    1
    36    18    19    1
    37    18    45    1
    38    18    46    1
    39    19    20    1
    40    19    27    1
    41    20    21    1
    42    20    22    1
    43    20    24    1
    44    22    23    3
    45    24    25    1
    46    24    26    1
    47    24    47    1
    48    25    48    1
    49    25    49    1
    50    25    50    1
    51    26    51    1
    52    26    52    1
    53    26    53    1
    54    27    28    1
    55    27    54    1
    56    27    55    1
    57    28    56    1
    58    28    57    1
@<TRIPOS>SUBSTRUCTURE
     1 ZINC000609484313        1 TEMP              0 ****  ****    0 ROOT


##########                                Name:    ZINC000465392830
##########                DOCK_Rotatable_Bonds:                   8
##########                         Heavy_Atoms:                  29
##########                    Molecular_Weight:             419.588
##########                DOCK_Rotatable_Bonds:                   8
##########                       Formal_Charge:           0.0199996
##########                     HBond_Acceptors:                   7
##########                        HBond_Donors:                   0
##########                         Heavy_Atoms:                  29
##########                          Grid_Score:          -35.903538
##########                     Grid_vdw_energy:          -34.757854
##########                      Grid_es_energy:           -1.145683
##########           Internal_energy_repulsive:           25.903103

@<TRIPOS>MOLECULE
ZINC000465392830
 62 64 1 0 0
SMALL
USER_CHARGES


@<TRIPOS>ATOM
      1 C1        -14.5266   -1.7423   62.9763 C.3     1  ZINC000465392830    0.0400
      2 O2        -13.3133   -0.9575   63.1198 O.3     1  ZINC000465392830   -0.3600
      3 C3        -12.9877   -0.1471   62.1005 C.2     1  ZINC000465392830    0.4600
      4 O4        -13.6925   -0.0958   61.1205 O.2     1  ZINC000465392830   -0.4900
      5 C5        -11.7429    0.6988   62.1787 C.3     1  ZINC000465392830    0.1500
      6 H6        -11.5886    1.2192   61.2335 H       1  ZINC000465392830    0.1100
      7 C7        -11.8750    1.7224   63.3260 C.3     1  ZINC000465392830   -0.1100
      8 C8        -10.4447    1.7583   63.9261 C.3     1  ZINC000465392830   -0.0900
      9 H9         -9.7973    2.4225   63.3535 H       1  ZINC000465392830    0.1000
     10 C10       -10.4785    2.1670   65.4002 C.3     1  ZINC000465392830   -0.0800
     11 C11        -9.0531    2.1911   65.9556 C.3     1  ZINC000465392830   -0.1200
     12 C12        -9.0869    2.5998   67.4295 C.3     1  ZINC000465392830   -0.1200
     13 C13        -9.7081    3.9921   67.5586 C.3     1  ZINC000465392830   -0.1200
     14 C14       -11.1334    3.9680   67.0032 C.3     1  ZINC000465392830   -0.1200
     15 C15       -11.0996    3.5593   65.5292 C.3     1  ZINC000465392830   -0.1200
     16 C16       -10.0041    0.2816   63.7686 C.3     1  ZINC000465392830    0.1000
     17 N17       -10.5799   -0.1495   62.4780 N.am    1  ZINC000465392830   -0.6100
     18 C18       -10.1173   -1.1541   61.7079 C.2     1  ZINC000465392830    0.5400
     19 O19        -9.1449   -1.7886   62.0582 O.2     1  ZINC000465392830   -0.5300
     20 C20       -10.8086   -1.4892   60.4113 C.3     1  ZINC000465392830   -0.1300
     21 C21        -9.7608   -1.7525   59.3279 C.3     1  ZINC000465392830   -0.0600
     22 C22       -10.4345   -2.3188   58.1046 C.ar    1  ZINC000465392830   -0.2000
     23 C23       -10.9331   -1.4810   57.1190 C.ar    1  ZINC000465392830    0.2000
     24 C24       -10.8085    0.0147   57.2550 C.3     1  ZINC000465392830   -0.1100
     25 N25       -11.5189   -2.0102   56.0579 N.ar    1  ZINC000465392830   -0.5000
     26 C26       -11.6317   -3.3248   55.9314 C.ar    1  ZINC000465392830    0.3000
     27 S27       -12.4194   -3.9870   54.5011 S.3     1  ZINC000465392830    0.0000
     28 C28       -11.0436   -3.9234   53.3267 C.3     1  ZINC000465392830   -0.1400
     29 N29       -11.1652   -4.1532   56.8552 N.ar    1  ZINC000465392830   -0.5300
     30 C30       -10.5641   -3.6889   57.9379 C.ar    1  ZINC000465392830    0.2000
     31 C31       -10.0367   -4.6375   58.9834 C.3     1  ZINC000465392830   -0.1100
     32 H32       -15.3785   -1.0742   62.8496 H       1  ZINC000465392830    0.0600
     33 H33       -14.4395   -2.3896   62.1036 H       1  ZINC000465392830    0.0600
     34 H34       -14.6725   -2.3521   63.8679 H       1  ZINC000465392830    0.1000
     35 H35       -12.1554    2.7019   62.9385 H       1  ZINC000465392830    0.1000
     36 H36       -12.5960    1.3792   64.0679 H       1  ZINC000465392830    0.0800
     37 H37       -11.0756    1.4493   65.9626 H       1  ZINC000465392830    0.0800
     38 H38        -8.6106    1.1992   65.8636 H       1  ZINC000465392830    0.0600
     39 H39        -8.4560    2.9089   65.3931 H       1  ZINC000465392830    0.0700
     40 H40        -9.6840    1.8820   67.9921 H       1  ZINC000465392830    0.0600
     41 H41        -8.0714    2.6169   67.8253 H       1  ZINC000465392830    0.0600
     42 H42        -9.7322    4.2833   68.6087 H       1  ZINC000465392830    0.0600
     43 H43        -9.1109    4.7099   66.9961 H       1  ZINC000465392830    0.0600
     44 H44       -11.7306    3.2503   67.5657 H       1  ZINC000465392830    0.0600
     45 H45       -11.5760    4.9600   67.0950 H       1  ZINC000465392830    0.0600
     46 H46       -10.5026    4.2772   64.9667 H       1  ZINC000465392830    0.0700
     47 H47       -12.1152    3.5422   65.1335 H       1  ZINC000465392830    0.0600
     48 H48        -8.9168    0.2111   63.7396 H       1  ZINC000465392830    0.0900
     49 H49       -10.4028   -0.3223   64.5838 H       1  ZINC000465392830    0.0800
     50 H50       -11.4230   -2.3795   60.5467 H       1  ZINC000465392830    0.1000
     51 H51       -11.4408   -0.6539   60.1101 H       1  ZINC000465392830    0.1000
     52 H52        -9.2633   -0.8179   59.0689 H       1  ZINC000465392830    0.0900
     53 H53        -9.0246   -2.4651   59.6999 H       1  ZINC000465392830    0.0900
     54 H54        -9.8730    0.3439   56.8030 H       1  ZINC000465392830    0.0900
     55 H55       -11.6456    0.4964   56.7494 H       1  ZINC000465392830    0.0900
     56 H56       -10.8172    0.2856   58.3107 H       1  ZINC000465392830    0.0900
     57 H57       -10.7115   -2.8916   53.2117 H       1  ZINC000465392830    0.0900
     58 H58       -10.2192   -4.5310   53.6996 H       1  ZINC000465392830    0.0900
     59 H59       -11.3718   -4.3092   52.3615 H       1  ZINC000465392830    0.1100
     60 H60        -9.0055   -4.9005   58.7482 H       1  ZINC000465392830    0.0900
     61 H61       -10.0753   -4.1580   59.9615 H       1  ZINC000465392830    0.0900
     62 H62       -10.6479   -5.5398   58.9967 H       1  ZINC000465392830    0.0800
@<TRIPOS>BOND
     1     1     2    1
     2     1    32    1
     3     1    33    1
     4     1    34    1
     5     2     3    1
     6     3     4    2
     7     3     5    1
     8     5     6    1
     9     5    17    1
    10     5     7    1
    11     7     8    1
    12     7    35    1
    13     7    36    1
    14     8     9    1
    15     8    10    1
    16     8    16    1
    17    10    15    1
    18    10    11    1
    19    10    37    1
    20    11    12    1
    21    11    38    1
    22    11    39    1
    23    12    13    1
    24    12    40    1
    25    12    41    1
    26    13    14    1
    27    13    42    1
    28    13    43    1
    29    14    15    1
    30    14    44    1
    31    14    45    1
    32    15    46    1
    33    15    47    1
    34    16    17    1
    35    16    48    1
    36    16    49    1
    37    17    18   am
    38    18    19    2
    39    18    20    1
    40    20    21    1
    41    20    50    1
    42    20    51    1
    43    21    22    1
    44    21    52    1
    45    21    53    1
    46    22    30   ar
    47    22    23   ar
    48    23    24    1
    49    23    25   ar
    50    24    54    1
    51    24    55    1
    52    24    56    1
    53    25    26   ar
    54    26    27    1
    55    26    29   ar
    56    27    28    1
    57    28    57    1
    58    28    58    1
    59    28    59    1
    60    29    30   ar
    61    30    31    1
    62    31    60    1
    63    31    61    1
    64    31    62    1
@<TRIPOS>SUBSTRUCTURE
     1 ZINC000465392830        1 TEMP              0 ****  ****    0 ROOT


##########                                Name:    ZINC000186105981
##########                DOCK_Rotatable_Bonds:                   6
##########                         Heavy_Atoms:                  26
##########                    Molecular_Weight:             396.873
##########                DOCK_Rotatable_Bonds:                   6
##########                       Formal_Charge:          -0.0400003
##########                     HBond_Acceptors:                   9
##########                        HBond_Donors:                   1
##########                         Heavy_Atoms:                  26
##########                          Grid_Score:          -35.894562
##########                     Grid_vdw_energy:          -35.081848
##########                      Grid_es_energy:           -0.812713
##########           Internal_energy_repulsive:           24.623438

@<TRIPOS>MOLECULE
ZINC000186105981
 44 46 1 0 0
SMALL
USER_CHARGES


@<TRIPOS>ATOM
      1 C1        -13.3875   -5.0274   56.3020 C.3     1  ZINC000186105981   -0.1400
      2 C2        -12.9502   -4.3134   55.0215 C.3     1  ZINC000186105981   -0.1100
      3 C3        -13.9886   -3.2536   54.6484 C.3     1  ZINC000186105981   -0.1600
      4 C4        -11.5949   -3.6412   55.2498 C.3     1  ZINC000186105981    0.1600
      5 H5        -10.8070   -4.3940   55.2241 H       1  ZINC000186105981    0.1200
      6 C6        -11.5930   -2.9578   56.5929 C.2     1  ZINC000186105981    0.4900
      7 O7        -12.3459   -2.0304   56.8025 O.2     1  ZINC000186105981   -0.4300
      8 N8        -10.7546   -3.3771   57.5613 N.am    1  ZINC000186105981   -0.6300
      9 C9        -10.7529   -2.7469   58.7999 C.2     1  ZINC000186105981    0.2400
     10 N10       -11.4623   -3.0911   59.8367 N.2     1  ZINC000186105981   -0.2600
     11 N11       -11.3365   -2.4052   60.8875 N.2     1  ZINC000186105981   -0.2000
     12 C12       -10.5053   -1.4014   60.8595 C.2     1  ZINC000186105981    0.0300
     13 C13       -10.2145   -0.4804   61.9783 C.ar    1  ZINC000186105981   -0.0500
     14 C14        -9.3189   -0.8566   62.9828 C.ar    1  ZINC000186105981    0.1300
     15 F15        -8.7154   -2.0644   62.9347 F       1  ZINC000186105981   -0.1200
     16 C16        -9.0519    0.0106   64.0256 C.ar    1  ZINC000186105981   -0.1400
     17 C17        -9.6686    1.2474   64.0756 C.ar    1  ZINC000186105981   -0.0600
     18 C18       -10.5568    1.6258   63.0844 C.ar    1  ZINC000186105981   -0.1200
     19 C19       -10.8291    0.7727   62.0335 C.ar    1  ZINC000186105981    0.0200
     20 Cl20      -11.9434    1.2505   60.7911 Cl      1  ZINC000186105981   -0.0100
     21 S21        -9.7834   -1.3428   59.2502 S.3     1  ZINC000186105981    0.1200
     22 N22       -11.3579   -2.6501   54.1973 N.am    1  ZINC000186105981   -0.6100
     23 C23       -11.1962   -1.2110   54.4363 C.3     1  ZINC000186105981    0.1000
     24 C24       -10.5493   -0.6499   53.1506 C.3     1  ZINC000186105981   -0.1300
     25 C25       -11.0049   -1.6811   52.0924 C.3     1  ZINC000186105981   -0.1600
     26 C26       -11.2549   -2.9424   52.8893 C.2     1  ZINC000186105981    0.5200
     27 O27       -11.3551   -4.0546   52.4163 O.2     1  ZINC000186105981   -0.5000
     28 H28       -14.3531   -5.5062   56.1393 H       1  ZINC000186105981    0.0600
     29 H29       -12.6477   -5.7824   56.5678 H       1  ZINC000186105981    0.0600
     30 H30       -13.4733   -4.3021   57.1112 H       1  ZINC000186105981    0.0600
     31 H31       -12.8644   -5.0387   54.2123 H       1  ZINC000186105981    0.0900
     32 H32       -14.0075   -2.4779   55.4140 H       1  ZINC000186105981    0.0600
     33 H33       -13.7261   -2.8099   53.6880 H       1  ZINC000186105981    0.0600
     34 H34       -14.9723   -3.7178   54.5773 H       1  ZINC000186105981    0.0700
     35 H35       -10.1524   -4.1189   57.3936 H       1  ZINC000186105981    0.4200
     36 H36        -8.3603   -0.2784   64.8030 H       1  ZINC000186105981    0.1500
     37 H37        -9.4563    1.9210   64.8926 H       1  ZINC000186105981    0.1500
     38 H38       -11.0349    2.5932   63.1304 H       1  ZINC000186105981    0.1500
     39 H39       -12.1673   -0.7452   54.6042 H       1  ZINC000186105981    0.0700
     40 H40       -10.5429   -1.0419   55.2922 H       1  ZINC000186105981    0.0800
     41 H41       -10.9365    0.3426   52.9202 H       1  ZINC000186105981    0.0900
     42 H42        -9.4627   -0.6328   53.2362 H       1  ZINC000186105981    0.0800
     43 H43       -11.9198   -1.3468   51.6031 H       1  ZINC000186105981    0.1100
     44 H44       -10.2170   -1.8473   51.3577 H       1  ZINC000186105981    0.1000
@<TRIPOS>BOND
     1     1     2    1
     2     1    28    1
     3     1    29    1
     4     1    30    1
     5     2     3    1
     6     2     4    1
     7     2    31    1
     8     3    32    1
     9     3    33    1
    10     3    34    1
    11     4     5    1
    12     4     6    1
    13     4    22    1
    14     6     7    2
    15     6     8   am
    16     8     9    1
    17     8    35    1
    18     9    21    1
    19     9    10    2
    20    10    11    1
    21    11    12    2
    22    12    13    1
    23    12    21    1
    24    13    19   ar
    25    13    14   ar
    26    14    15    1
    27    14    16   ar
    28    16    17   ar
    29    16    36    1
    30    17    18   ar
    31    17    37    1
    32    18    19   ar
    33    18    38    1
    34    19    20    1
    35    22    26   am
    36    22    23    1
    37    23    24    1
    38    23    39    1
    39    23    40    1
    40    24    25    1
    41    24    41    1
    42    24    42    1
    43    25    26    1
    44    25    43    1
    45    25    44    1
    46    26    27    2
@<TRIPOS>SUBSTRUCTURE
     1 ZINC000186105981        1 TEMP              0 ****  ****    0 ROOT


##########                                Name:    ZINC001328997126
##########                DOCK_Rotatable_Bonds:                   7
##########                         Heavy_Atoms:                  26
##########                    Molecular_Weight:             388.488
##########                DOCK_Rotatable_Bonds:                   7
##########                       Formal_Charge:           0.0299993
##########                     HBond_Acceptors:                  10
##########                        HBond_Donors:                   1
##########                         Heavy_Atoms:                  26
##########                          Grid_Score:          -35.893921
##########                     Grid_vdw_energy:          -35.791924
##########                      Grid_es_energy:           -0.101999
##########           Internal_energy_repulsive:           10.910745

@<TRIPOS>MOLECULE
ZINC001328997126
 54 56 1 0 0
SMALL
USER_CHARGES


@<TRIPOS>ATOM
      1 C1        -15.8183   -0.3061   47.8164 C.3     1  ZINC001328997126   -0.1700
      2 C2        -14.5163    0.2999   48.3440 C.3     1  ZINC001328997126    0.1400
      3 N3        -14.1256   -0.3827   49.5799 N.am    1  ZINC001328997126   -0.6300
      4 C4        -14.4157   -1.7865   49.9102 C.3     1  ZINC001328997126    0.0700
      5 C5        -13.7860   -1.9731   51.3042 C.3     1  ZINC001328997126    0.0700
      6 H6        -13.0068   -2.7347   51.2726 H       1  ZINC001328997126    0.1200
      7 C7        -14.8572   -2.3459   52.3310 C.3     1  ZINC001328997126    0.0500
      8 N8        -14.3372   -3.3900   53.2239 N.3     1  ZINC001328997126   -0.5300
      9 C9        -15.3592   -3.8126   54.1916 C.3     1  ZINC001328997126    0.0500
     10 C10       -14.8058   -4.9534   55.0487 C.3     1  ZINC001328997126    0.0600
     11 N11       -13.5889   -4.5000   55.7365 N.3     1  ZINC001328997126   -0.5200
     12 C12       -13.0687   -5.5442   56.6294 C.3     1  ZINC001328997126    0.0400
     13 C13       -11.9460   -4.9802   57.4614 C.2     1  ZINC001328997126    0.5200
     14 O14       -10.8736   -5.5459   57.4960 O.2     1  ZINC001328997126   -0.5100
     15 N15       -12.1334   -3.8475   58.1671 N.am    1  ZINC001328997126   -0.7300
     16 C16       -11.0424   -3.3002   58.9774 C.3     1  ZINC001328997126    0.1600
     17 H17       -10.2896   -4.0702   59.1464 H       1  ZINC001328997126    0.1100
     18 C18       -10.4049   -2.1051   58.2473 C.3     1  ZINC001328997126   -0.1400
     19 C19        -9.5052   -1.3816   59.2823 C.3     1  ZINC001328997126   -0.5800
     20 S20       -10.5479   -1.3867   60.7897 S.o2    1  ZINC001328997126    2.4000
     21 O21        -9.7492   -1.7302   61.9136 O.2     1  ZINC001328997126   -0.9300
     22 O22       -11.3401   -0.2073   60.8183 O.2     1  ZINC001328997126   -0.9300
     23 C23       -11.5965   -2.8112   60.3304 C.3     1  ZINC001328997126   -0.6100
     24 C24       -12.5668   -4.0775   54.7689 C.3     1  ZINC001328997126    0.0500
     25 C25       -13.1202   -2.9367   53.9118 C.3     1  ZINC001328997126    0.0600
     26 O26       -13.2133   -0.6688   51.6100 O.3     1  ZINC001328997126   -0.3100
     27 C27       -13.4408    0.1681   50.5915 C.2     1  ZINC001328997126    0.6400
     28 O28       -13.0677    1.3245   50.5875 O.2     1  ZINC001328997126   -0.5200
     29 H29       -15.6696   -1.3668   47.6141 H       1  ZINC001328997126    0.0600
     30 H30       -16.6039   -0.1850   48.5622 H       1  ZINC001328997126    0.0600
     31 H31       -16.1090    0.2018   46.8968 H       1  ZINC001328997126    0.0700
     32 H32       -13.7308    0.1789   47.5981 H       1  ZINC001328997126    0.0900
     33 H33       -14.6650    1.3606   48.5462 H       1  ZINC001328997126    0.0900
     34 H34       -15.4917   -1.9559   49.9503 H       1  ZINC001328997126    0.0900
     35 H35       -13.9486   -2.4544   49.1865 H       1  ZINC001328997126    0.0900
     36 H36       -15.1212   -1.4653   52.9166 H       1  ZINC001328997126    0.0900
     37 H37       -15.7421   -2.7174   51.8144 H       1  ZINC001328997126    0.0600
     38 H38       -15.6231   -2.9713   54.8324 H       1  ZINC001328997126    0.0500
     39 H39       -16.2456   -4.1556   53.6579 H       1  ZINC001328997126    0.0900
     40 H40       -15.5518   -5.2490   55.7863 H       1  ZINC001328997126    0.0800
     41 H41       -14.5673   -5.8046   54.4110 H       1  ZINC001328997126    0.0500
     42 H42       -13.8671   -5.8925   57.2848 H       1  ZINC001328997126    0.1100
     43 H43       -12.6967   -6.3785   56.0347 H       1  ZINC001328997126    0.0700
     44 H44       -12.9906   -3.3945   58.1386 H       1  ZINC001328997126    0.4100
     45 H45        -9.8020   -2.4573   57.4103 H       1  ZINC001328997126    0.1100
     46 H46       -11.1814   -1.4286   57.8901 H       1  ZINC001328997126    0.0900
     47 H47        -8.5824   -1.9376   59.4483 H       1  ZINC001328997126    0.1400
     48 H48        -9.2915   -0.3616   58.9631 H       1  ZINC001328997126    0.1400
     49 H49       -12.6352   -2.4981   60.2247 H       1  ZINC001328997126    0.1400
     50 H50       -11.5121   -3.5998   61.0780 H       1  ZINC001328997126    0.1500
     51 H51       -11.6805   -3.7344   55.3025 H       1  ZINC001328997126    0.1000
     52 H52       -12.3029   -4.9188   54.1280 H       1  ZINC001328997126    0.0400
     53 H53       -12.3742   -2.6411   53.1740 H       1  ZINC001328997126    0.0800
     54 H54       -13.3587   -2.0854   54.5495 H       1  ZINC001328997126    0.0500
@<TRIPOS>BOND
     1     1     2    1
     2     1    29    1
     3     1    30    1
     4     1    31    1
     5     2     3    1
     6     2    32    1
     7     2    33    1
     8     3    27   am
     9     3     4    1
    10     4     5    1
    11     4    34    1
    12     4    35    1
    13     5     6    1
    14     5     7    1
    15     5    26    1
    16     7     8    1
    17     7    36    1
    18     7    37    1
    19     8    25    1
    20     8     9    1
    21     9    10    1
    22     9    38    1
    23     9    39    1
    24    10    11    1
    25    10    40    1
    26    10    41    1
    27    11    12    1
    28    11    24    1
    29    12    13    1
    30    12    42    1
    31    12    43    1
    32    13    14    2
    33    13    15   am
    34    15    16    1
    35    15    44    1
    36    16    17    1
    37    16    23    1
    38    16    18    1
    39    18    19    1
    40    18    45    1
    41    18    46    1
    42    19    20    1
    43    19    47    1
    44    19    48    1
    45    20    21    2
    46    20    22    2
    47    20    23    1
    48    23    49    1
    49    23    50    1
    50    24    25    1
    51    24    51    1
    52    24    52    1
    53    25    53    1
    54    25    54    1
    55    26    27    1
    56    27    28    2
@<TRIPOS>SUBSTRUCTURE
     1 ZINC001328997126        1 TEMP              0 ****  ****    0 ROOT


##########                                Name:    ZINC000992031068
##########                DOCK_Rotatable_Bonds:                   8
##########                         Heavy_Atoms:                  25
##########                    Molecular_Weight:             342.401
##########                DOCK_Rotatable_Bonds:                   8
##########                       Formal_Charge:           0.0199999
##########                     HBond_Acceptors:                   8
##########                        HBond_Donors:                   2
##########                         Heavy_Atoms:                  25
##########                          Grid_Score:          -35.892929
##########                     Grid_vdw_energy:          -34.279152
##########                      Grid_es_energy:           -1.613779
##########           Internal_energy_repulsive:            5.719023

@<TRIPOS>MOLECULE
ZINC000992031068
 47 49 1 0 0
SMALL
USER_CHARGES


@<TRIPOS>ATOM
      1 C1        -10.1601    0.3086   63.0677 C.3     1  ZINC000992031068   -0.1100
      2 C2        -10.2750   -0.9038   62.1800 C.ar    1  ZINC000992031068    0.1800
      3 C3        -11.4839   -1.2216   61.5776 C.ar    1  ZINC000992031068   -0.1700
      4 C4        -11.5394   -2.3540   60.7642 C.ar    1  ZINC000992031068    0.1300
      5 C5        -12.8065   -2.7406   60.0943 C.2     1  ZINC000992031068    0.5700
      6 O6        -13.8722   -2.5007   60.6256 O.2     1  ZINC000992031068   -0.5200
      7 N7        -12.7745   -3.3580   58.8967 N.am    1  ZINC000992031068   -0.7100
      8 C8        -14.0249   -3.7380   58.2348 C.3     1  ZINC000992031068    0.1300
      9 C9        -13.7101   -4.5543   56.9797 C.3     1  ZINC000992031068   -0.1200
     10 C10       -14.5511   -4.1527   55.7565 C.3     1  ZINC000992031068   -0.1400
     11 C11       -13.2745   -4.3324   54.9182 C.3     1  ZINC000992031068    0.1200
     12 N12       -13.1034   -3.3099   53.8831 N.am    1  ZINC000992031068   -0.7200
     13 C13       -12.1539   -3.4597   52.9383 C.2     1  ZINC000992031068    0.5200
     14 O14       -11.4422   -4.4416   52.9442 O.2     1  ZINC000992031068   -0.5200
     15 C15       -11.9767   -2.4070   51.8746 C.3     1  ZINC000992031068   -0.0800
     16 C16       -10.9433   -1.4069   52.3249 C.2     1  ZINC000992031068    0.1000
     17 C17        -9.6034   -1.5215   52.1744 C.2     1  ZINC000992031068   -0.2500
     18 C18        -9.0092   -0.3819   52.7265 C.2     1  ZINC000992031068    0.0500
     19 N19        -9.9583    0.3892   53.1917 N.2     1  ZINC000992031068   -0.2900
     20 N20       -11.1886   -0.2337   52.9453 N.pl3   1  ZINC000992031068   -0.3700
     21 C21       -12.5079    0.2913   53.3056 C.3     1  ZINC000992031068    0.1000
     22 C22       -12.4833   -4.0448   56.2050 C.3     1  ZINC000992031068   -0.1400
     23 N23       -10.4373   -3.0814   60.5985 N.ar    1  ZINC000992031068   -0.5000
     24 C24        -9.3121   -2.7418   61.1901 C.ar    1  ZINC000992031068    0.3000
     25 N25        -9.2241   -1.6753   61.9611 N.ar    1  ZINC000992031068   -0.5100
     26 H26        -9.8816    1.1740   62.4664 H       1  ZINC000992031068    0.0900
     27 H27       -11.1182    0.4962   63.5525 H       1  ZINC000992031068    0.0900
     28 H28        -9.3974    0.1325   63.8263 H       1  ZINC000992031068    0.0900
     29 H29       -12.3592   -0.6086   61.7343 H       1  ZINC000992031068    0.1600
     30 H30       -11.9235   -3.5507   58.4730 H       1  ZINC000992031068    0.4100
     31 H31       -14.6291   -4.3373   58.9160 H       1  ZINC000992031068    0.0700
     32 H32       -14.5757   -2.8397   57.9553 H       1  ZINC000992031068    0.0800
     33 H33       -13.6936   -5.6281   57.1664 H       1  ZINC000992031068    0.1000
     34 H34       -15.3373   -4.8675   55.5135 H       1  ZINC000992031068    0.0800
     35 H35       -14.9092   -3.1238   55.7917 H       1  ZINC000992031068    0.0900
     36 H36       -13.1403   -5.3454   54.5387 H       1  ZINC000992031068    0.1200
     37 H37       -13.6734   -2.5251   53.8777 H       1  ZINC000992031068    0.4000
     38 H38       -11.6473   -2.8779   50.9485 H       1  ZINC000992031068    0.1200
     39 H39       -12.9257   -1.8979   51.7058 H       1  ZINC000992031068    0.1100
     40 H40        -9.0845   -2.3472   51.7104 H       1  ZINC000992031068    0.1500
     41 H41        -7.9498   -0.1747   52.7629 H       1  ZINC000992031068    0.1800
     42 H42       -12.8939    0.8977   52.4862 H       1  ZINC000992031068    0.0800
     43 H43       -13.1893   -0.5379   53.4961 H       1  ZINC000992031068    0.0800
     44 H44       -12.4223    0.9046   54.2026 H       1  ZINC000992031068    0.0900
     45 H45       -12.2760   -2.9863   56.3628 H       1  ZINC000992031068    0.0900
     46 H46       -11.6001   -4.6724   56.3241 H       1  ZINC000992031068    0.0800
     47 H47        -8.4343   -3.3518   61.0367 H       1  ZINC000992031068    0.2100
@<TRIPOS>BOND
     1     1     2    1
     2     1    26    1
     3     1    27    1
     4     1    28    1
     5     2    25   ar
     6     2     3   ar
     7     3     4   ar
     8     3    29    1
     9     4     5    1
    10     4    23   ar
    11     5     6    2
    12     5     7   am
    13     7     8    1
    14     7    30    1
    15     8     9    1
    16     8    31    1
    17     8    32    1
    18     9    22    1
    19     9    10    1
    20     9    33    1
    21    10    11    1
    22    10    34    1
    23    10    35    1
    24    11    12    1
    25    11    22    1
    26    11    36    1
    27    12    13   am
    28    12    37    1
    29    13    14    2
    30    13    15    1
    31    15    16    1
    32    15    38    1
    33    15    39    1
    34    16    20    1
    35    16    17    2
    36    17    18    1
    37    17    40    1
    38    18    19    2
    39    18    41    1
    40    19    20    1
    41    20    21    1
    42    21    42    1
    43    21    43    1
    44    21    44    1
    45    22    45    1
    46    22    46    1
    47    23    24   ar
    48    24    25   ar
    49    24    47    1
@<TRIPOS>SUBSTRUCTURE
     1 ZINC000992031068        1 TEMP              0 ****  ****    0 ROOT


##########                                Name:    ZINC000373715094
##########                DOCK_Rotatable_Bonds:                   6
##########                         Heavy_Atoms:                  27
##########                    Molecular_Weight:             362.431
##########                DOCK_Rotatable_Bonds:                   6
##########                       Formal_Charge:           0.0299999
##########                     HBond_Acceptors:                   6
##########                        HBond_Donors:                   2
##########                         Heavy_Atoms:                  27
##########                          Grid_Score:          -35.879379
##########                     Grid_vdw_energy:          -34.902355
##########                      Grid_es_energy:           -0.977024
##########           Internal_energy_repulsive:           14.840961

@<TRIPOS>MOLECULE
ZINC000373715094
 49 52 1 0 0
SMALL
USER_CHARGES


@<TRIPOS>ATOM
      1 C1        -14.2909   -0.3988   53.9907 C.3     1  ZINC000373715094    0.0900
      2 N2        -13.1179   -0.9021   53.2716 N.am    1  ZINC000373715094   -0.6100
      3 C3        -11.8540   -0.5171   53.5187 C.2     1  ZINC000373715094    0.5200
      4 O4        -11.5267    0.2950   54.3578 O.2     1  ZINC000373715094   -0.5200
      5 C5        -10.8991   -1.2446   52.5980 C.3     1  ZINC000373715094   -0.1600
      6 C6        -11.7299   -2.4269   52.0476 C.3     1  ZINC000373715094   -0.1000
      7 H7        -11.4867   -2.6217   51.0031 H       1  ZINC000373715094    0.1100
      8 C8        -11.5255   -3.6825   52.8977 C.3     1  ZINC000373715094    0.1300
      9 N9        -11.8636   -3.3883   54.2924 N.am    1  ZINC000373715094   -0.7300
     10 C10       -12.8813   -4.0386   54.8907 C.2     1  ZINC000373715094    0.5200
     11 O11       -13.5162   -4.8684   54.2748 O.2     1  ZINC000373715094   -0.5200
     12 C12       -13.2302   -3.7347   56.3249 C.3     1  ZINC000373715094   -0.0600
     13 C13       -12.0713   -4.1068   57.2134 C.2     1  ZINC000373715094    0.1200
     14 N14       -11.5492   -5.2935   57.3373 N.2     1  ZINC000373715094   -0.2300
     15 N15       -10.4904   -5.2598   58.2506 N.pl3   1  ZINC000373715094   -0.5100
     16 C16       -10.3453   -3.9809   58.7213 C.ar    1  ZINC000373715094    0.1300
     17 C17        -9.4754   -3.3791   59.6268 C.ar    1  ZINC000373715094   -0.1400
     18 C18        -9.5876   -2.0436   59.8927 C.ar    1  ZINC000373715094   -0.0700
     19 C19       -10.5620   -1.2735   59.2703 C.ar    1  ZINC000373715094   -0.1600
     20 C20       -11.4285   -1.8363   58.3783 C.ar    1  ZINC000373715094   -0.0400
     21 C21       -11.3295   -3.2004   58.0841 C.ar    1  ZINC000373715094   -0.1600
     22 C22       -13.1714   -1.8960   52.1931 C.3     1  ZINC000373715094    0.1800
     23 H23       -13.8480   -2.7090   52.4564 H       1  ZINC000373715094    0.1000
     24 C24       -13.6178   -1.2413   50.9112 C.ar    1  ZINC000373715094   -0.1000
     25 C25       -14.3065   -1.9751   49.9636 C.ar    1  ZINC000373715094   -0.1000
     26 C26       -14.7160   -1.3744   48.7879 C.ar    1  ZINC000373715094   -0.1200
     27 C27       -14.4371   -0.0398   48.5599 C.ar    1  ZINC000373715094   -0.1100
     28 C28       -13.7493    0.6943   49.5079 C.ar    1  ZINC000373715094   -0.1200
     29 C29       -13.3435    0.0948   50.6855 C.ar    1  ZINC000373715094   -0.1100
     30 H30       -14.4822   -1.0286   54.8596 H       1  ZINC000373715094    0.0600
     31 H31       -14.1054    0.6244   54.3175 H       1  ZINC000373715094    0.0800
     32 H32       -15.1578   -0.4178   53.3302 H       1  ZINC000373715094    0.0700
     33 H33       -10.5804   -0.5915   51.7857 H       1  ZINC000373715094    0.1100
     34 H34       -10.0368   -1.6109   53.1550 H       1  ZINC000373715094    0.1100
     35 H35       -12.1699   -4.4802   52.5281 H       1  ZINC000373715094    0.0700
     36 H36       -10.4842   -3.9981   52.8350 H       1  ZINC000373715094    0.0800
     37 H37       -11.3550   -2.7255   54.7853 H       1  ZINC000373715094    0.4000
     38 H38       -13.4414   -2.6705   56.4297 H       1  ZINC000373715094    0.1200
     39 H39       -14.1095   -4.3099   56.6147 H       1  ZINC000373715094    0.1200
     40 H40        -9.9461   -6.0199   58.5095 H       1  ZINC000373715094    0.4400
     41 H41        -8.7139   -3.9666   60.1181 H       1  ZINC000373715094    0.1300
     42 H42        -8.9107   -1.5811   60.5957 H       1  ZINC000373715094    0.1300
     43 H43       -10.6348   -0.2195   59.4946 H       1  ZINC000373715094    0.1300
     44 H44       -12.1833   -1.2307   57.8986 H       1  ZINC000373715094    0.1300
     45 H45       -14.5244   -3.0178   50.1417 H       1  ZINC000373715094    0.1200
     46 H46       -15.2535   -1.9480   48.0472 H       1  ZINC000373715094    0.1200
     47 H47       -14.7565    0.4292   47.6409 H       1  ZINC000373715094    0.1200
     48 H48       -13.5311    1.7368   49.3296 H       1  ZINC000373715094    0.1300
     49 H49       -12.8061    0.6682   51.4262 H       1  ZINC000373715094    0.1300
@<TRIPOS>BOND
     1     1     2    1
     2     1    30    1
     3     1    31    1
     4     1    32    1
     5     2    22    1
     6     2     3   am
     7     3     4    2
     8     3     5    1
     9     5     6    1
    10     5    33    1
    11     5    34    1
    12     6     7    1
    13     6     8    1
    14     6    22    1
    15     8     9    1
    16     8    35    1
    17     8    36    1
    18     9    10   am
    19     9    37    1
    20    10    11    2
    21    10    12    1
    22    12    13    1
    23    12    38    1
    24    12    39    1
    25    13    21    1
    26    13    14    2
    27    14    15    1
    28    15    16    1
    29    15    40    1
    30    16    21   ar
    31    16    17   ar
    32    17    18   ar
    33    17    41    1
    34    18    19   ar
    35    18    42    1
    36    19    20   ar
    37    19    43    1
    38    20    21   ar
    39    20    44    1
    40    22    23    1
    41    22    24    1
    42    24    29   ar
    43    24    25   ar
    44    25    26   ar
    45    25    45    1
    46    26    27   ar
    47    26    46    1
    48    27    28   ar
    49    27    47    1
    50    28    29   ar
    51    28    48    1
    52    29    49    1
@<TRIPOS>SUBSTRUCTURE
     1 ZINC000373715094        1 TEMP              0 ****  ****    0 ROOT


##########                                Name:    ZINC000342525234
##########                DOCK_Rotatable_Bonds:                   6
##########                         Heavy_Atoms:                  25
##########                    Molecular_Weight:             333.349
##########                DOCK_Rotatable_Bonds:                   6
##########                       Formal_Charge:           0.0500003
##########                     HBond_Acceptors:                   7
##########                        HBond_Donors:                   2
##########                         Heavy_Atoms:                  25
##########                          Grid_Score:          -35.875660
##########                     Grid_vdw_energy:          -33.838943
##########                      Grid_es_energy:           -2.036715
##########           Internal_energy_repulsive:            7.583706

@<TRIPOS>MOLECULE
ZINC000342525234
 40 43 1 0 0
SMALL
USER_CHARGES


@<TRIPOS>ATOM
      1 O1        -13.6790   -4.5999   53.3721 O.2     1  <0>        -0.5100
      2 C2        -13.0481   -3.7602   53.9829 C.2     1  <0>         0.6000
      3 N3        -13.3791   -3.4620   55.2550 N.am    1  <0>        -0.7100
      4 C4        -14.5032   -4.1459   55.8990 C.3     1  <0>         0.1200
      5 C5        -13.9920   -4.9541   57.0933 C.3     1  <0>        -0.0900
      6 C6        -12.8775   -4.1991   57.7707 C.ar    1  <0>        -0.0400
      7 C7        -11.6870   -4.8181   57.9691 C.ar    1  <0>        -0.1000
      8 C8        -10.6358   -4.1207   58.6026 C.ar    1  <0>         0.1100
      9 N9         -9.3938   -4.4184   58.9384 N.2     1  <0>        -0.3100
     10 N10        -8.8111   -3.3066   59.5572 N.pl3   1  <0>        -0.4200
     11 C11        -9.6930   -2.2993   59.6121 C.2     1  <0>         0.0900
     12 C12       -10.8699   -2.7326   59.0303 C.ar    1  <0>        -0.2100
     13 C13       -12.1339   -2.1522   58.7913 C.ar    1  <0>        -0.0400
     14 C14       -13.0972   -2.8793   58.1718 C.ar    1  <0>        -0.1500
     15 C15       -11.9098   -3.0677   53.3308 C.2     1  <0>        -0.0200
     16 N16       -11.2291   -3.4826   52.2906 N.2     1  <0>        -0.3200
     17 O17       -10.3569   -2.7033   51.9859 O.3     1  <0>         0.1400
     18 C18       -10.3360   -1.6348   52.8020 C.2     1  <0>         0.0100
     19 C19        -9.4096   -0.4841   52.7320 C.ar    1  <0>         0.0200
     20 C20        -8.2622   -0.5321   51.9320 C.ar    1  <0>        -0.1400
     21 C21        -7.4257    0.5645   51.8960 C.ar    1  <0>         0.1100
     22 N22        -7.6953    1.6458   52.6021 N.ar    1  <0>        -0.4800
     23 C23        -8.7655    1.7326   53.3687 C.ar    1  <0>         0.1100
     24 C24        -9.6589    0.6853   53.4594 C.ar    1  <0>        -0.1500
     25 C25       -11.3446   -1.8204   53.7054 C.2     1  <0>        -0.1500
     26 H26       -12.8730   -2.7944   55.7439 H       1  <0>         0.4100
     27 H27       -15.2283   -3.4083   56.2430 H       1  <0>         0.0800
     28 H28       -14.9787   -4.8165   55.1833 H       1  <0>         0.0800
     29 H29       -14.8062   -5.1120   57.8004 H       1  <0>         0.0900
     30 H30       -13.6195   -5.9182   56.7468 H       1  <0>         0.0800
     31 H31       -11.5443   -5.8382   57.6448 H       1  <0>         0.1300
     32 H32        -7.9031   -3.2705   59.8964 H       1  <0>         0.4500
     33 H33        -9.5159   -1.3220   60.0361 H       1  <0>         0.1900
     34 H34       -12.3315   -1.1349   59.0953 H       1  <0>         0.1300
     35 H35       -14.0621   -2.4287   57.9918 H       1  <0>         0.1200
     36 H36        -8.0349   -1.4142   51.3519 H       1  <0>         0.1400
     37 H37        -6.5379    0.5372   51.2817 H       1  <0>         0.1700
     38 H38        -8.9468    2.6375   53.9296 H       1  <0>         0.1700
     39 H39       -10.5330    0.7634   54.0890 H       1  <0>         0.1500
     40 H40       -11.6387   -1.1728   54.5182 H       1  <0>         0.1900
@<TRIPOS>BOND
     1     1     2    2
     2     2     3   am
     3     2    15    1
     4     3     4    1
     5     3    26    1
     6     4     5    1
     7     4    27    1
     8     4    28    1
     9     5     6    1
    10     5    29    1
    11     5    30    1
    12     6    14   ar
    13     6     7   ar
    14     7     8   ar
    15     7    31    1
    16     8    12   ar
    17     8     9    2
    18     9    10    1
    19    10    11    1
    20    10    32    1
    21    11    12    2
    22    11    33    1
    23    12    13   ar
    24    13    14   ar
    25    13    34    1
    26    14    35    1
    27    15    25    1
    28    15    16    2
    29    16    17    1
    30    17    18    1
    31    18    19    1
    32    18    25    2
    33    19    24   ar
    34    19    20   ar
    35    20    21   ar
    36    20    36    1
    37    21    22   ar
    38    21    37    1
    39    22    23   ar
    40    23    24   ar
    41    23    38    1
    42    24    39    1
    43    25    40    1
@<TRIPOS>SUBSTRUCTURE
     1 <0>         1 TEMP              0 ****  ****    0 ROOT


##########                                Name:    ZINC000654672208
##########                DOCK_Rotatable_Bonds:                   5
##########                         Heavy_Atoms:                  25
##########                    Molecular_Weight:             365.497
##########                DOCK_Rotatable_Bonds:                   5
##########                       Formal_Charge:           0.0100001
##########                     HBond_Acceptors:                   7
##########                        HBond_Donors:                   1
##########                         Heavy_Atoms:                  25
##########                          Grid_Score:          -35.832531
##########                     Grid_vdw_energy:          -34.839561
##########                      Grid_es_energy:           -0.992970
##########           Internal_energy_repulsive:           14.727495

@<TRIPOS>MOLECULE
ZINC000654672208
 52 54 1 0 0
SMALL
USER_CHARGES


@<TRIPOS>ATOM
      1 C1        -11.7544   -2.1732   51.4475 C.3     1  ZINC000654672208   -0.1100
      2 C2        -12.5149   -2.9391   52.4992 C.ar    1  ZINC000654672208   -0.1300
      3 C3        -11.8467   -3.7614   53.3862 C.ar    1  ZINC000654672208    0.1000
      4 N4        -12.5054   -4.4344   54.3095 N.ar    1  ZINC000654672208   -0.4700
      5 C5        -13.8164   -4.3522   54.4245 C.ar    1  ZINC000654672208    0.1200
      6 C6        -14.5209   -5.1423   55.4971 C.3     1  ZINC000654672208   -0.0900
      7 C7        -13.4986   -5.6304   56.5254 C.3     1  ZINC000654672208    0.1500
      8 N8        -12.8456   -4.4774   57.1503 N.am    1  ZINC000654672208   -0.7500
      9 C9        -11.6793   -4.6373   57.8065 C.2     1  ZINC000654672208    0.7100
     10 O10       -11.1692   -5.7385   57.8801 O.2     1  ZINC000654672208   -0.5800
     11 N11       -11.0786   -3.5766   58.3813 N.am    1  ZINC000654672208   -0.6300
     12 C12        -9.8071   -3.7357   59.1000 C.3     1  ZINC000654672208    0.1300
     13 C13        -9.9615   -3.1526   60.5080 C.3     1  ZINC000654672208   -0.1400
     14 C14       -10.4488   -1.7059   60.4067 C.3     1  ZINC000654672208   -0.1100
     15 C15       -11.8201   -1.6749   59.7212 C.3     1  ZINC000654672208   -0.0600
     16 C16       -12.3064   -0.2244   59.6366 C.3     1  ZINC000654672208   -0.1200
     17 C17       -13.8564   -0.2170   59.6654 C.3     1  ZINC000654672208   -0.5800
     18 S18       -14.1938   -1.4722   60.9654 S.o2    1  ZINC000654672208    2.3800
     19 O19       -13.9637   -0.9046   62.2476 O.2     1  ZINC000654672208   -0.9300
     20 O20       -15.4231   -2.1284   60.6872 O.2     1  ZINC000654672208   -0.9300
     21 C21       -12.7927   -2.5634   60.5156 C.3     1  ZINC000654672208   -0.5800
     22 C22       -11.6802   -2.2393   58.2956 C.3     1  ZINC000654672208    0.1200
     23 C23       -14.5519   -3.5494   53.5729 C.ar    1  ZINC000654672208   -0.1200
     24 C24       -16.0499   -3.4609   53.7116 C.3     1  ZINC000654672208   -0.1200
     25 C25       -13.8936   -2.8230   52.5927 C.ar    1  ZINC000654672208   -0.0800
     26 H26       -11.4605   -1.2022   51.8464 H       1  ZINC000654672208    0.0700
     27 H27       -10.8638   -2.7336   51.1628 H       1  ZINC000654672208    0.0700
     28 H28       -12.3885   -2.0297   50.5727 H       1  ZINC000654672208    0.0700
     29 H29       -10.7726   -3.8543   53.3223 H       1  ZINC000654672208    0.1600
     30 H30       -15.2581   -4.5085   55.9902 H       1  ZINC000654672208    0.0900
     31 H31       -15.0215   -5.9996   55.0473 H       1  ZINC000654672208    0.0900
     32 H32       -14.0051   -6.2196   57.2899 H       1  ZINC000654672208    0.0700
     33 H33       -12.7494   -6.2470   56.0286 H       1  ZINC000654672208    0.0700
     34 H34       -13.2527   -3.5990   57.0917 H       1  ZINC000654672208    0.3900
     35 H35        -9.5557   -4.7942   59.1681 H       1  ZINC000654672208    0.1000
     36 H36        -9.0179   -3.2038   58.5686 H       1  ZINC000654672208    0.0700
     37 H37       -10.6870   -3.7424   61.0685 H       1  ZINC000654672208    0.0700
     38 H38        -8.9992   -3.1773   61.0196 H       1  ZINC000654672208    0.0800
     39 H39       -10.5328   -1.2799   61.4065 H       1  ZINC000654672208    0.0800
     40 H40        -9.7372   -1.1229   59.8221 H       1  ZINC000654672208    0.0800
     41 H41       -11.9214    0.3413   60.4851 H       1  ZINC000654672208    0.1000
     42 H42       -11.9549    0.2264   58.7085 H       1  ZINC000654672208    0.1000
     43 H43       -14.2386    0.7615   59.9564 H       1  ZINC000654672208    0.1400
     44 H44       -14.2679   -0.5269   58.7049 H       1  ZINC000654672208    0.1400
     45 H45       -13.1416   -3.3890   59.8955 H       1  ZINC000654672208    0.1400
     46 H46       -12.3076   -2.9442   61.4143 H       1  ZINC000654672208    0.1400
     47 H47       -11.0427   -1.5827   57.7034 H       1  ZINC000654672208    0.0800
     48 H48       -12.6643   -2.3117   57.8328 H       1  ZINC000654672208    0.0800
     49 H49       -16.3042   -2.6513   54.3958 H       1  ZINC000654672208    0.0800
     50 H50       -16.4942   -3.2649   52.7358 H       1  ZINC000654672208    0.0700
     51 H51       -16.4347   -4.4023   54.1036 H       1  ZINC000654672208    0.0700
     52 H52       -14.4423   -2.1876   51.9133 H       1  ZINC000654672208    0.1300
@<TRIPOS>BOND
     1     1     2    1
     2     1    26    1
     3     1    27    1
     4     1    28    1
     5     2    25   ar
     6     2     3   ar
     7     3     4   ar
     8     3    29    1
     9     4     5   ar
    10     5     6    1
    11     5    23   ar
    12     6     7    1
    13     6    30    1
    14     6    31    1
    15     7     8    1
    16     7    32    1
    17     7    33    1
    18     8     9   am
    19     8    34    1
    20     9    10    2
    21     9    11   am
    22    11    22    1
    23    11    12    1
    24    12    13    1
    25    12    35    1
    26    12    36    1
    27    13    14    1
    28    13    37    1
    29    13    38    1
    30    14    15    1
    31    14    39    1
    32    14    40    1
    33    15    21    1
    34    15    16    1
    35    15    22    1
    36    16    17    1
    37    16    41    1
    38    16    42    1
    39    17    18    1
    40    17    43    1
    41    17    44    1
    42    18    19    2
    43    18    20    2
    44    18    21    1
    45    21    45    1
    46    21    46    1
    47    22    47    1
    48    22    48    1
    49    23    24    1
    50    23    25   ar
    51    24    49    1
    52    24    50    1
    53    24    51    1
    54    25    52    1
@<TRIPOS>SUBSTRUCTURE
     1 ZINC000654672208        1 TEMP              0 ****  ****    0 ROOT


##########                                Name:    ZINC000762020937
##########                DOCK_Rotatable_Bonds:                  10
##########                         Heavy_Atoms:                  28
##########                    Molecular_Weight:             391.467
##########                DOCK_Rotatable_Bonds:                  10
##########                       Formal_Charge:         -1.8999e-07
##########                     HBond_Acceptors:                   8
##########                        HBond_Donors:                   1
##########                         Heavy_Atoms:                  28
##########                          Grid_Score:          -35.821365
##########                     Grid_vdw_energy:          -34.870087
##########                      Grid_es_energy:           -0.951277
##########           Internal_energy_repulsive:           37.917820

@<TRIPOS>MOLECULE
ZINC000762020937
 57 58 1 0 0
SMALL
USER_CHARGES


@<TRIPOS>ATOM
      1 C1        -11.0053   -1.4793   57.0597 C.3     1  ZINC000762020937    0.0200
      2 O2         -9.7866   -1.1935   57.7490 O.3     1  ZINC000762020937   -0.3000
      3 C3         -9.8889   -0.8012   59.0471 C.ar    1  ZINC000762020937    0.1100
      4 C4        -10.3359    0.4735   59.3539 C.ar    1  ZINC000762020937   -0.1700
      5 C5        -10.4397    0.8707   60.6744 C.ar    1  ZINC000762020937   -0.1000
      6 C6        -10.0980   -0.0016   61.6904 C.ar    1  ZINC000762020937   -0.1000
      7 C7        -10.2126    0.4366   63.1278 C.3     1  ZINC000762020937    0.0200
      8 C8        -11.6657    0.4845   63.5240 C.2     1  ZINC000762020937    0.1900
      9 N9        -12.6397   -0.2257   63.0078 N.2     1  ZINC000762020937   -0.4700
     10 C10       -13.7502    0.1496   63.6671 C.2     1  ZINC000762020937    0.1600
     11 C11       -15.1431   -0.3797   63.4417 C.3     1  ZINC000762020937    0.2600
     12 H12       -15.7225    0.3509   62.8772 H       1  ZINC000762020937    0.1200
     13 N13       -15.0728   -1.6343   62.6884 N.am    1  ZINC000762020937   -0.7100
     14 C14       -15.1485   -1.6176   61.3428 C.2     1  ZINC000762020937    0.6600
     15 O15       -15.2737   -0.5618   60.7544 O.2     1  ZINC000762020937   -0.5600
     16 O16       -15.0855   -2.7707   60.6507 O.3     1  ZINC000762020937   -0.3600
     17 C17       -15.5958   -2.7523   59.2914 C.3     1  ZINC000762020937    0.1400
     18 C18       -17.0151   -2.1810   59.2870 C.3     1  ZINC000762020937   -0.1800
     19 C19       -14.6918   -1.8791   58.4190 C.3     1  ZINC000762020937   -0.1400
     20 C20       -15.6182   -4.1777   58.7357 C.3     1  ZINC000762020937   -0.1800
     21 C21       -15.8174   -0.6325   64.7915 C.3     1  ZINC000762020937   -0.1000
     22 C22       -16.6939    0.5672   65.1563 C.3     1  ZINC000762020937   -0.1400
     23 C23       -16.6851   -1.8894   64.7009 C.3     1  ZINC000762020937   -0.1400
     24 N24       -13.4015    1.0520   64.5346 N.2     1  ZINC000762020937   -0.3700
     25 O25       -12.2072    1.2547   64.4725 O.3     1  ZINC000762020937    0.0900
     26 C26        -9.6513   -1.2756   61.3911 C.ar    1  ZINC000762020937   -0.1500
     27 C27        -9.5500   -1.6817   60.0706 C.ar    1  ZINC000762020937    0.1000
     28 O28        -9.1110   -2.9342   59.7745 O.3     1  ZINC000762020937   -0.3100
     29 C29       -10.1015   -3.9571   59.6534 C.3     1  ZINC000762020937    0.0200
     30 H30       -11.5302   -2.2872   57.5694 H       1  ZINC000762020937    0.0600
     31 H31       -11.6335   -0.5885   57.0478 H       1  ZINC000762020937    0.0600
     32 H32       -10.7819   -1.7799   56.0361 H       1  ZINC000762020937    0.1000
     33 H33       -10.6031    1.1573   58.5617 H       1  ZINC000762020937    0.1400
     34 H34       -10.7885    1.8648   60.9121 H       1  ZINC000762020937    0.1300
     35 H35        -9.6849   -0.2715   63.7667 H       1  ZINC000762020937    0.1200
     36 H36        -9.7720    1.4272   63.2419 H       1  ZINC000762020937    0.1200
     37 H37       -14.9716   -2.4770   63.1580 H       1  ZINC000762020937    0.4100
     38 H38       -16.9992   -1.1655   59.6830 H       1  ZINC000762020937    0.0600
     39 H39       -17.3982   -2.1672   58.2667 H       1  ZINC000762020937    0.0700
     40 H40       -17.6591   -2.8031   59.9086 H       1  ZINC000762020937    0.0900
     41 H41       -13.6806   -2.2861   58.4220 H       1  ZINC000762020937    0.0700
     42 H42       -15.0749   -1.8652   57.3986 H       1  ZINC000762020937    0.0800
     43 H43       -14.6759   -0.8636   58.8149 H       1  ZINC000762020937    0.0700
     44 H44       -16.2621   -4.7999   59.3573 H       1  ZINC000762020937    0.0900
     45 H45       -16.0012   -4.1640   57.7154 H       1  ZINC000762020937    0.0700
     46 H46       -14.6071   -4.5848   58.7388 H       1  ZINC000762020937    0.0600
     47 H47       -15.0550   -0.7719   65.5581 H       1  ZINC000762020937    0.0800
     48 H48       -17.4563    0.7066   64.3899 H       1  ZINC000762020937    0.0600
     49 H49       -17.1744    0.3871   66.1181 H       1  ZINC000762020937    0.0600
     50 H50       -16.0758    1.4626   65.2210 H       1  ZINC000762020937    0.0500
     51 H51       -16.0606   -2.7441   64.4409 H       1  ZINC000762020937    0.0500
     52 H52       -17.1655   -2.0694   65.6625 H       1  ZINC000762020937    0.0600
     53 H53       -17.4474   -1.7499   63.9343 H       1  ZINC000762020937    0.0700
     54 H54        -9.3849   -1.9552   62.1870 H       1  ZINC000762020937    0.1400
     55 H55       -10.7987   -3.6953   58.8574 H       1  ZINC000762020937    0.0600
     56 H56        -9.6182   -4.9047   59.4159 H       1  ZINC000762020937    0.1000
     57 H57       -10.6433   -4.0515   60.5945 H       1  ZINC000762020937    0.0600
@<TRIPOS>BOND
     1     1     2    1
     2     1    30    1
     3     1    31    1
     4     1    32    1
     5     2     3    1
     6     3    27   ar
     7     3     4   ar
     8     4     5   ar
     9     4    33    1
    10     5     6   ar
    11     5    34    1
    12     6     7    1
    13     6    26   ar
    14     7     8    1
    15     7    35    1
    16     7    36    1
    17     8    25    1
    18     8     9    2
    19     9    10    1
    20    10    11    1
    21    10    24    2
    22    11    12    1
    23    11    13    1
    24    11    21    1
    25    13    14   am
    26    13    37    1
    27    14    15    2
    28    14    16    1
    29    16    17    1
    30    17    18    1
    31    17    19    1
    32    17    20    1
    33    18    38    1
    34    18    39    1
    35    18    40    1
    36    19    41    1
    37    19    42    1
    38    19    43    1
    39    20    44    1
    40    20    45    1
    41    20    46    1
    42    21    22    1
    43    21    23    1
    44    21    47    1
    45    22    48    1
    46    22    49    1
    47    22    50    1
    48    23    51    1
    49    23    52    1
    50    23    53    1
    51    24    25    1
    52    26    27   ar
    53    26    54    1
    54    27    28    1
    55    28    29    1
    56    29    55    1
    57    29    56    1
    58    29    57    1
@<TRIPOS>SUBSTRUCTURE
     1 ZINC000762020937        1 TEMP              0 ****  ****    0 ROOT


##########                                Name:    ZINC000848949366
##########                DOCK_Rotatable_Bonds:                   8
##########                         Heavy_Atoms:                  25
##########                    Molecular_Weight:             368.773
##########                DOCK_Rotatable_Bonds:                   8
##########                       Formal_Charge:          0.00999947
##########                     HBond_Acceptors:                   9
##########                        HBond_Donors:                   3
##########                         Heavy_Atoms:                  25
##########                          Grid_Score:          -35.816578
##########                     Grid_vdw_energy:          -34.494324
##########                      Grid_es_energy:           -1.322253
##########           Internal_energy_repulsive:           12.243129

@<TRIPOS>MOLECULE
ZINC000848949366
 42 43 1 0 0
SMALL
USER_CHARGES


@<TRIPOS>ATOM
      1 C1        -11.8317   -3.5247   52.5175 C.3     1  ZINC000848949366   -0.1500
      2 C2        -11.3845   -2.5611   53.6187 C.3     1  ZINC000848949366    0.0600
      3 O3        -12.3371   -2.5799   54.6836 O.3     1  ZINC000848949366   -0.3500
      4 C4        -12.0822   -3.4070   55.7191 C.2     1  ZINC000848949366    0.5400
      5 O5        -11.0113   -3.9804   55.7903 O.2     1  ZINC000848949366   -0.4800
      6 C6        -13.0597   -3.6072   56.7217 C.2     1  ZINC000848949366   -0.2300
      7 C7        -12.8310   -3.2441   58.0021 C.2     1  ZINC000848949366    0.2000
      8 C8        -11.5121   -2.6146   58.3699 C.3     1  ZINC000848949366    0.1000
      9 O9        -11.6427   -1.9247   59.6409 O.3     1  ZINC000848949366   -0.3500
     10 C10       -10.5022   -1.6085   60.2852 C.2     1  ZINC000848949366    0.5100
     11 O11        -9.4403   -2.0512   59.8939 O.2     1  ZINC000848949366   -0.4800
     12 C12       -10.5427   -0.7259   61.4644 C.ar    1  ZINC000848949366   -0.1600
     13 C13       -11.3888    0.3864   61.4808 C.ar    1  ZINC000848949366   -0.0300
     14 C14       -11.4222    1.2079   62.5860 C.ar    1  ZINC000848949366   -0.1300
     15 C15       -10.6194    0.9365   63.6838 C.ar    1  ZINC000848949366    0.0200
     16 Cl16      -10.6711    1.9804   65.0699 Cl      1  ZINC000848949366   -0.0500
     17 C17        -9.7785   -0.1607   63.6807 C.ar    1  ZINC000848949366   -0.1500
     18 C18        -9.7367   -1.0008   62.5790 C.ar    1  ZINC000848949366    0.1900
     19 O19        -8.9121   -2.0777   62.5745 O.3     1  ZINC000848949366   -0.4700
     20 N20       -13.7758   -3.4376   58.9690 N.am    1  ZINC000848949366   -0.6400
     21 C21       -14.9741   -3.9881   58.7367 C.2     1  ZINC000848949366    0.7100
     22 O22       -15.7502   -4.1195   59.6631 O.2     1  ZINC000848949366   -0.5600
     23 N23       -15.3478   -4.4010   57.5095 N.am    1  ZINC000848949366   -0.7100
     24 C24       -14.4013   -4.2308   56.3943 C.3     1  ZINC000848949366    0.2000
     25 H25       -14.8862   -3.6207   55.6322 H       1  ZINC000848949366    0.0900
     26 C26       -14.1334   -5.6099   55.7884 C.3     1  ZINC000848949366   -0.1700
     27 H27       -11.1051   -3.5104   51.7051 H       1  ZINC000848949366    0.0800
     28 H28       -11.9024   -4.5335   52.9241 H       1  ZINC000848949366    0.0700
     29 H29       -12.8062   -3.2164   52.1387 H       1  ZINC000848949366    0.0700
     30 H30       -10.4100   -2.8694   53.9974 H       1  ZINC000848949366    0.0700
     31 H31       -11.3138   -1.5523   53.2120 H       1  ZINC000848949366    0.0700
     32 H32       -10.7504   -3.3897   58.4538 H       1  ZINC000848949366    0.1100
     33 H33       -11.2218   -1.9021   57.5978 H       1  ZINC000848949366    0.1000
     34 H34       -12.0152    0.6019   60.6278 H       1  ZINC000848949366    0.1500
     35 H35       -12.0762    2.0672   62.5976 H       1  ZINC000848949366    0.1500
     36 H36        -9.1561   -0.3657   64.5393 H       1  ZINC000848949366    0.1500
     37 H37        -8.2906   -2.1004   63.3151 H       1  ZINC000848949366    0.4000
     38 H38       -13.5670   -3.1609   59.8749 H       1  ZINC000848949366    0.4300
     39 H39       -16.2209   -4.7977   57.3637 H       1  ZINC000848949366    0.4400
     40 H40       -15.0692   -6.0359   55.4267 H       1  ZINC000848949366    0.0700
     41 H41       -13.4337   -5.5123   54.9583 H       1  ZINC000848949366    0.0700
     42 H42       -13.7062   -6.2640   56.5486 H       1  ZINC000848949366    0.0700
@<TRIPOS>BOND
     1     1     2    1
     2     1    27    1
     3     1    28    1
     4     1    29    1
     5     2     3    1
     6     2    30    1
     7     2    31    1
     8     3     4    1
     9     4     5    2
    10     4     6    1
    11     6    24    1
    12     6     7    2
    13     7     8    1
    14     7    20    1
    15     8     9    1
    16     8    32    1
    17     8    33    1
    18     9    10    1
    19    10    11    2
    20    10    12    1
    21    12    18   ar
    22    12    13   ar
    23    13    14   ar
    24    13    34    1
    25    14    15   ar
    26    14    35    1
    27    15    16    1
    28    15    17   ar
    29    17    18   ar
    30    17    36    1
    31    18    19    1
    32    19    37    1
    33    20    21   am
    34    20    38    1
    35    21    22    2
    36    21    23   am
    37    23    24    1
    38    23    39    1
    39    24    25    1
    40    24    26    1
    41    26    40    1
    42    26    41    1
    43    26    42    1
@<TRIPOS>SUBSTRUCTURE
     1 ZINC000848949366        1 TEMP              0 ****  ****    0 ROOT


##########                                Name:    ZINC000110375116
##########                DOCK_Rotatable_Bonds:                  10
##########                         Heavy_Atoms:                  27
##########                    Molecular_Weight:             396.511
##########                DOCK_Rotatable_Bonds:                  10
##########                       Formal_Charge:        -2.23517e-07
##########                     HBond_Acceptors:                   9
##########                        HBond_Donors:                   0
##########                         Heavy_Atoms:                  27
##########                          Grid_Score:          -35.812962
##########                     Grid_vdw_energy:          -36.208920
##########                      Grid_es_energy:            0.395957
##########           Internal_energy_repulsive:           32.473679

@<TRIPOS>MOLECULE
ZINC000110375116
 55 56 1 0 0
SMALL
USER_CHARGES


@<TRIPOS>ATOM
      1 C1         -5.6114    3.3958   66.9073 C.3     1  ZINC000110375116   -0.1700
      2 C2         -6.9252    3.0544   67.6134 C.3     1  ZINC000110375116    0.1000
      3 N3         -7.9677    2.8102   66.6136 N.am    1  ZINC000110375116   -0.6200
      4 C4         -8.7975    3.9185   66.1348 C.3     1  ZINC000110375116    0.1100
      5 C5        -10.0371    4.0481   67.0223 C.3     1  ZINC000110375116   -0.1700
      6 C6         -8.1636    1.5659   66.1343 C.2     1  ZINC000110375116    0.5100
      7 O7         -7.4777    0.6480   66.5318 O.2     1  ZINC000110375116   -0.5300
      8 C8         -9.2350    1.3151   65.1045 C.3     1  ZINC000110375116   -0.1400
      9 C9         -8.8553    0.0971   64.2599 C.3     1  ZINC000110375116   -0.0900
     10 C10        -9.7979   -0.0045   63.0590 C.3     1  ZINC000110375116   -0.1400
     11 C11        -9.4146   -1.1955   62.2189 C.2     1  ZINC000110375116    0.5200
     12 O12        -8.7128   -2.0669   62.6868 O.2     1  ZINC000110375116   -0.5300
     13 N13        -9.8517   -1.2922   60.9476 N.am    1  ZINC000110375116   -0.6200
     14 C14        -9.4894   -2.4500   60.1182 C.3     1  ZINC000110375116    0.0900
     15 C15       -10.7761   -3.0958   59.5893 C.3     1  ZINC000110375116    0.1000
     16 N16       -11.6239   -2.0456   59.0079 N.am    1  ZINC000110375116   -1.0000
     17 S17       -12.1618   -2.1650   57.4462 S.o2    1  ZINC000110375116    2.7000
     18 O18       -13.0650   -1.0857   57.2493 O.2     1  ZINC000110375116   -0.9400
     19 O19       -11.0103   -2.3717   56.6399 O.2     1  ZINC000110375116   -0.9500
     20 C20       -13.1183   -3.6407   57.3354 C.ar    1  ZINC000110375116   -0.7400
     21 C21       -14.4488   -3.6455   57.7246 C.ar    1  ZINC000110375116    0.0200
     22 C22       -15.1629   -4.8296   57.6195 C.ar    1  ZINC000110375116   -0.1900
     23 C23       -14.5290   -5.9573   57.1336 C.ar    1  ZINC000110375116    0.1500
     24 N24       -13.2613   -5.9158   56.7726 N.ar    1  ZINC000110375116   -0.4900
     25 C25       -12.5531   -4.8066   56.8539 C.ar    1  ZINC000110375116    0.2000
     26 C26       -11.9862   -0.8877   59.8373 C.3     1  ZINC000110375116    0.1000
     27 C27       -10.7042   -0.2447   60.3680 C.3     1  ZINC000110375116    0.1000
     28 H28        -4.8357    3.5775   67.6512 H       1  ZINC000110375116    0.0700
     29 H29        -5.3150    2.5634   66.2691 H       1  ZINC000110375116    0.0600
     30 H30        -5.7477    4.2897   66.2986 H       1  ZINC000110375116    0.0600
     31 H31        -6.7889    2.1605   68.2220 H       1  ZINC000110375116    0.0800
     32 H32        -7.2216    3.8868   68.2516 H       1  ZINC000110375116    0.0800
     33 H33        -8.2243    4.8449   66.1739 H       1  ZINC000110375116    0.0800
     34 H34        -9.1049    3.7248   65.1071 H       1  ZINC000110375116    0.0800
     35 H35       -10.6544    4.8727   66.6661 H       1  ZINC000110375116    0.0700
     36 H36       -10.6103    3.1218   66.9831 H       1  ZINC000110375116    0.0500
     37 H37        -9.7295    4.2419   68.0498 H       1  ZINC000110375116    0.0600
     38 H38       -10.1843    1.1277   65.6060 H       1  ZINC000110375116    0.0900
     39 H39        -9.3308    2.1887   64.4598 H       1  ZINC000110375116    0.0900
     40 H40        -7.8292    0.2044   63.9083 H       1  ZINC000110375116    0.0800
     41 H41        -8.9396   -0.8054   64.8652 H       1  ZINC000110375116    0.0800
     42 H42       -10.8228   -0.1225   63.4104 H       1  ZINC000110375116    0.1000
     43 H43        -9.7215    0.9027   62.4594 H       1  ZINC000110375116    0.1000
     44 H44        -8.8738   -2.1218   59.2808 H       1  ZINC000110375116    0.0800
     45 H45        -8.9380   -3.1727   60.7198 H       1  ZINC000110375116    0.1000
     46 H46       -10.5284   -3.8314   58.8241 H       1  ZINC000110375116    0.1100
     47 H47       -11.3055   -3.5813   60.4091 H       1  ZINC000110375116    0.0800
     48 H48       -14.9180   -2.7486   58.1011 H       1  ZINC000110375116    0.1500
     49 H49       -16.2012   -4.8700   57.9138 H       1  ZINC000110375116    0.1500
     50 H50       -15.0780   -6.8835   57.0491 H       1  ZINC000110375116    0.1700
     51 H51       -11.5171   -4.8111   56.5488 H       1  ZINC000110375116    0.1700
     52 H52       -12.5377   -0.1650   59.2358 H       1  ZINC000110375116    0.1100
     53 H53       -12.6018   -1.2160   60.6748 H       1  ZINC000110375116    0.0800
     54 H54       -10.9533    0.4906   61.1331 H       1  ZINC000110375116    0.1100
     55 H55       -10.1725    0.2409   59.5497 H       1  ZINC000110375116    0.0800
@<TRIPOS>BOND
     1     1     2    1
     2     1    28    1
     3     1    29    1
     4     1    30    1
     5     2     3    1
     6     2    31    1
     7     2    32    1
     8     3     4    1
     9     3     6   am
    10     4     5    1
    11     4    33    1
    12     4    34    1
    13     5    35    1
    14     5    36    1
    15     5    37    1
    16     6     7    2
    17     6     8    1
    18     8     9    1
    19     8    38    1
    20     8    39    1
    21     9    10    1
    22     9    40    1
    23     9    41    1
    24    10    11    1
    25    10    42    1
    26    10    43    1
    27    11    12    2
    28    11    13   am
    29    13    27    1
    30    13    14    1
    31    14    15    1
    32    14    44    1
    33    14    45    1
    34    15    16    1
    35    15    46    1
    36    15    47    1
    37    16    17   am
    38    16    26    1
    39    17    18    2
    40    17    19    2
    41    17    20    1
    42    20    25   ar
    43    20    21   ar
    44    21    22   ar
    45    21    48    1
    46    22    23   ar
    47    22    49    1
    48    23    24   ar
    49    23    50    1
    50    24    25   ar
    51    25    51    1
    52    26    27    1
    53    26    52    1
    54    26    53    1
    55    27    54    1
    56    27    55    1
@<TRIPOS>SUBSTRUCTURE
     1 ZINC000110375116        1 TEMP              0 ****  ****    0 ROOT


##########                                Name:    ZINC000744839011
##########                DOCK_Rotatable_Bonds:                  10
##########                         Heavy_Atoms:                  24
##########                    Molecular_Weight:              378.83
##########                DOCK_Rotatable_Bonds:                  10
##########                       Formal_Charge:           0.0300002
##########                     HBond_Acceptors:                   9
##########                        HBond_Donors:                   0
##########                         Heavy_Atoms:                  24
##########                          Grid_Score:          -35.790230
##########                     Grid_vdw_energy:          -34.398350
##########                      Grid_es_energy:           -1.391882
##########           Internal_energy_repulsive:            8.683421

@<TRIPOS>MOLECULE
ZINC000744839011
 43 43 1 0 0
SMALL
USER_CHARGES


@<TRIPOS>ATOM
      1 C1        -13.8963   -6.1041   56.4910 C.3     1  ZINC000744839011    0.0400
      2 O2        -14.3641   -4.8679   57.0921 O.3     1  ZINC000744839011   -0.3600
      3 C3        -13.5545   -3.7953   56.9939 C.2     1  ZINC000744839011    0.5100
      4 O4        -13.4328   -3.2213   55.9299 O.2     1  ZINC000744839011   -0.5000
      5 C5        -12.8159   -3.3181   58.1777 C.ar    1  ZINC000744839011   -0.1600
      6 C6        -13.4114   -2.4077   59.0551 C.ar    1  ZINC000744839011   -0.0100
      7 C7        -12.7188   -1.9646   60.1600 C.ar    1  ZINC000744839011   -0.2100
      8 C8        -11.4293   -2.4212   60.4036 C.ar    1  ZINC000744839011    0.1800
      9 O9        -10.7504   -1.9819   61.4937 O.3     1  ZINC000744839011   -0.2900
     10 C10       -10.0230   -0.7597   61.3557 C.3     1  ZINC000744839011    0.0500
     11 C11        -9.8523   -0.1099   62.7304 C.3     1  ZINC000744839011    0.0600
     12 O12        -9.0158   -0.9543   63.5644 O.3     1  ZINC000744839011   -0.3400
     13 C13        -8.9491   -0.6472   64.8694 C.2     1  ZINC000744839011    0.5000
     14 O14        -8.8370   -1.5254   65.6916 O.2     1  ZINC000744839011   -0.4900
     15 C15        -9.0139    0.7928   65.3089 C.3     1  ZINC000744839011   -0.6400
     16 S16        -7.3553    1.3565   65.7797 S.o2    1  ZINC000744839011    2.4400
     17 O17        -6.9873    0.7170   66.9941 O.2     1  ZINC000744839011   -0.9100
     18 O18        -6.5011    1.2438   64.6497 O.2     1  ZINC000744839011   -0.9100
     19 C19        -7.6390    3.1163   66.1162 C.3     1  ZINC000744839011   -0.5700
     20 C20        -8.6646    3.2613   67.2425 C.3     1  ZINC000744839011   -0.1500
     21 C21        -6.3231    3.7738   66.5369 C.3     1  ZINC000744839011   -0.1500
     22 C22       -10.8324   -3.3280   59.5334 C.ar    1  ZINC000744839011   -0.0800
     23 Cl23       -9.2212   -3.8953   59.8435 Cl      1  ZINC000744839011   -0.0400
     24 C24       -11.5202   -3.7798   58.4287 C.ar    1  ZINC000744839011   -0.0100
     25 H25       -13.7395   -5.9523   55.4230 H       1  ZINC000744839011    0.0700
     26 H26       -12.9573   -6.4023   56.9573 H       1  ZINC000744839011    0.0700
     27 H27       -14.6410   -6.8858   56.6414 H       1  ZINC000744839011    0.1100
     28 H28       -14.4135   -2.0516   58.8666 H       1  ZINC000744839011    0.1500
     29 H29       -13.1786   -1.2607   60.8380 H       1  ZINC000744839011    0.1500
     30 H30        -9.0423   -0.9669   60.9275 H       1  ZINC000744839011    0.0900
     31 H31       -10.5704   -0.0831   60.6995 H       1  ZINC000744839011    0.1000
     32 H32        -9.3821    0.8666   62.6148 H       1  ZINC000744839011    0.1100
     33 H33       -10.8290    0.0103   63.1992 H       1  ZINC000744839011    0.0900
     34 H34        -9.3872    1.4065   64.4891 H       1  ZINC000744839011    0.1700
     35 H35        -9.6842    0.8819   66.1638 H       1  ZINC000744839011    0.1700
     36 H36        -8.0165    3.6021   65.2164 H       1  ZINC000744839011    0.1400
     37 H37        -8.8350    4.3186   67.4447 H       1  ZINC000744839011    0.0900
     38 H38        -9.6020    2.7929   66.9427 H       1  ZINC000744839011    0.0700
     39 H39        -8.2870    2.7755   68.1423 H       1  ZINC000744839011    0.0800
     40 H40        -5.5926    3.6705   65.7346 H       1  ZINC000744839011    0.0800
     41 H41        -6.4936    4.8312   66.7392 H       1  ZINC000744839011    0.0900
     42 H42        -5.9457    3.2881   67.4367 H       1  ZINC000744839011    0.0800
     43 H43       -11.0566   -4.4836   57.7534 H       1  ZINC000744839011    0.1600
@<TRIPOS>BOND
     1     1     2    1
     2     1    25    1
     3     1    26    1
     4     1    27    1
     5     2     3    1
     6     3     4    2
     7     3     5    1
     8     5    24   ar
     9     5     6   ar
    10     6     7   ar
    11     6    28    1
    12     7     8   ar
    13     7    29    1
    14     8     9    1
    15     8    22   ar
    16     9    10    1
    17    10    11    1
    18    10    30    1
    19    10    31    1
    20    11    12    1
    21    11    32    1
    22    11    33    1
    23    12    13    1
    24    13    14    2
    25    13    15    1
    26    15    16    1
    27    15    34    1
    28    15    35    1
    29    16    17    2
    30    16    18    2
    31    16    19    1
    32    19    20    1
    33    19    21    1
    34    19    36    1
    35    20    37    1
    36    20    38    1
    37    20    39    1
    38    21    40    1
    39    21    41    1
    40    21    42    1
    41    22    23    1
    42    22    24   ar
    43    24    43    1
@<TRIPOS>SUBSTRUCTURE
     1 ZINC000744839011        1 TEMP              0 ****  ****    0 ROOT


##########                                Name:    ZINC001289445798
##########                DOCK_Rotatable_Bonds:                  10
##########                         Heavy_Atoms:                  25
##########                    Molecular_Weight:             352.434
##########                DOCK_Rotatable_Bonds:                  10
##########                       Formal_Charge:          0.00999932
##########                     HBond_Acceptors:                   8
##########                        HBond_Donors:                   2
##########                         Heavy_Atoms:                  25
##########                          Grid_Score:          -35.769825
##########                     Grid_vdw_energy:          -34.619144
##########                      Grid_es_energy:           -1.150682
##########           Internal_energy_repulsive:           19.530857

@<TRIPOS>MOLECULE
ZINC001289445798
 53 54 1 0 0
SMALL
USER_CHARGES


@<TRIPOS>ATOM
      1 C1         -1.5176    4.3780   45.0043 C.3     1  ZINC001289445798   -0.1500
      2 C2         -1.0414    3.8734   46.3679 C.3     1  ZINC001289445798    0.0600
      3 O3         -0.3801    2.6169   46.2064 O.3     1  ZINC001289445798   -0.3700
      4 C4         -1.2680    1.5111   46.0308 C.3     1  ZINC001289445798    0.1100
      5 H5         -2.2681    1.8806   45.8041 H       1  ZINC001289445798    0.0700
      6 C6         -1.3099    0.6818   47.3159 C.3     1  ZINC001289445798   -0.1400
      7 C7         -1.1201    1.5879   48.5050 C.2     1  ZINC001289445798    0.5400
      8 O8         -0.0213    2.0348   48.7576 O.2     1  ZINC001289445798   -0.5200
      9 N9         -2.1714    1.9015   49.2879 N.am    1  ZINC001289445798   -0.6200
     10 C10        -3.5501    1.4259   49.1022 C.3     1  ZINC001289445798    0.1000
     11 C11        -4.3976    2.0191   50.2473 C.3     1  ZINC001289445798    0.1400
     12 H12        -4.9015    2.9294   49.9226 H       1  ZINC001289445798    0.1200
     13 N13        -5.3689    1.0372   50.7356 N.am    1  ZINC001289445798   -0.7200
     14 C14        -6.5736    1.4453   51.1814 C.2     1  ZINC001289445798    0.6000
     15 O15        -6.8537    2.6289   51.1798 O.2     1  ZINC001289445798   -0.5100
     16 C16        -7.5501    0.4588   51.6703 C.2     1  ZINC001289445798   -0.0500
     17 C17        -8.4623    0.6312   52.6969 C.2     1  ZINC001289445798   -0.1400
     18 C18        -9.1574   -0.5773   52.7810 C.2     1  ZINC001289445798    0.0000
     19 N19        -8.6761   -1.3815   51.8678 N.2     1  ZINC001289445798   -0.2700
     20 N20        -7.7420   -0.8085   51.1979 N.pl3   1  ZINC001289445798   -0.3800
     21 C21        -3.3379    2.3366   51.3353 C.3     1  ZINC001289445798    0.0700
     22 H22        -3.0983    1.4475   51.9185 H       1  ZINC001289445798    0.0900
     23 O23        -3.7776    3.3991   52.1839 O.3     1  ZINC001289445798   -0.3700
     24 C24        -3.1875    3.3856   53.4852 C.3     1  ZINC001289445798    0.0300
     25 C25        -2.1280    2.7731   50.4761 C.3     1  ZINC001289445798    0.0800
     26 C26        -0.7731    0.6378   44.8762 C.3     1  ZINC001289445798   -0.1100
     27 C27        -1.9226   -0.2340   44.3669 C.3     1  ZINC001289445798   -0.1500
     28 C28        -0.2687    1.5310   43.7410 C.3     1  ZINC001289445798   -0.1500
     29 H29        -2.2100    3.6561   44.5713 H       1  ZINC001289445798    0.0600
     30 H30        -2.0219    5.3365   45.1275 H       1  ZINC001289445798    0.0700
     31 H31        -0.6603    4.5011   44.3427 H       1  ZINC001289445798    0.0600
     32 H32        -0.3490    4.5952   46.8010 H       1  ZINC001289445798    0.0500
     33 H33        -1.8989    3.7504   47.0295 H       1  ZINC001289445798    0.0500
     34 H34        -2.2740    0.1789   47.3925 H       1  ZINC001289445798    0.1100
     35 H35        -0.5130   -0.0616   47.2948 H       1  ZINC001289445798    0.1000
     36 H36        -3.9340    1.7682   48.1411 H       1  ZINC001289445798    0.0800
     37 H37        -3.5759    0.3372   49.1474 H       1  ZINC001289445798    0.0800
     38 H38        -5.1452    0.0934   50.7381 H       1  ZINC001289445798    0.4000
     39 H39        -8.6060    1.5130   53.3039 H       1  ZINC001289445798    0.1700
     40 H40        -9.9507   -0.8074   53.4767 H       1  ZINC001289445798    0.1900
     41 H41        -7.2440   -1.2157   50.4720 H       1  ZINC001289445798    0.4400
     42 H42        -3.5725    4.2229   54.0674 H       1  ZINC001289445798    0.0900
     43 H43        -3.4353    2.4501   53.9868 H       1  ZINC001289445798    0.0400
     44 H44        -2.1049    3.4737   53.3943 H       1  ZINC001289445798    0.0500
     45 H45        -1.1988    2.6245   51.0261 H       1  ZINC001289445798    0.0900
     46 H46        -2.2309    3.8167   50.1784 H       1  ZINC001289445798    0.0900
     47 H47         0.0394    0.0003   45.2251 H       1  ZINC001289445798    0.0800
     48 H48        -2.7350    0.4035   44.0179 H       1  ZINC001289445798    0.0600
     49 H49        -1.5700   -0.8561   43.5442 H       1  ZINC001289445798    0.0600
     50 H50        -2.2819   -0.8704   45.1756 H       1  ZINC001289445798    0.0600
     51 H51         0.6116    2.0803   44.0746 H       1  ZINC001289445798    0.0600
     52 H52        -0.0077    0.9137   42.8815 H       1  ZINC001289445798    0.0600
     53 H53        -1.0509    2.2356   43.4581 H       1  ZINC001289445798    0.0500
@<TRIPOS>BOND
     1     1     2    1
     2     1    29    1
     3     1    30    1
     4     1    31    1
     5     2     3    1
     6     2    32    1
     7     2    33    1
     8     3     4    1
     9     4     5    1
    10     4     6    1
    11     4    26    1
    12     6     7    1
    13     6    34    1
    14     6    35    1
    15     7     8    2
    16     7     9   am
    17     9    25    1
    18     9    10    1
    19    10    11    1
    20    10    36    1
    21    10    37    1
    22    11    12    1
    23    11    13    1
    24    11    21    1
    25    13    14   am
    26    13    38    1
    27    14    15    2
    28    14    16    1
    29    16    20    1
    30    16    17    2
    31    17    18    1
    32    17    39    1
    33    18    19    2
    34    18    40    1
    35    19    20    1
    36    20    41    1
    37    21    22    1
    38    21    23    1
    39    21    25    1
    40    23    24    1
    41    24    42    1
    42    24    43    1
    43    24    44    1
    44    25    45    1
    45    25    46    1
    46    26    27    1
    47    26    28    1
    48    26    47    1
    49    27    48    1
    50    27    49    1
    51    27    50    1
    52    28    51    1
    53    28    52    1
    54    28    53    1
@<TRIPOS>SUBSTRUCTURE
     1 ZINC001289445798        1 TEMP              0 ****  ****    0 ROOT


##########                                Name:    ZINC000963156778
##########                DOCK_Rotatable_Bonds:                   6
##########                         Heavy_Atoms:                  24
##########                    Molecular_Weight:             349.414
##########                DOCK_Rotatable_Bonds:                   6
##########                       Formal_Charge:         -0.00999984
##########                     HBond_Acceptors:                   9
##########                        HBond_Donors:                   2
##########                         Heavy_Atoms:                  24
##########                          Grid_Score:          -35.743080
##########                     Grid_vdw_energy:          -35.085758
##########                      Grid_es_energy:           -0.657321
##########           Internal_energy_repulsive:            7.171225

@<TRIPOS>MOLECULE
ZINC000963156778
 43 46 1 0 0
SMALL
USER_CHARGES


@<TRIPOS>ATOM
      1 C1         -9.0098    1.5892   65.6774 C.3     1  ZINC000963156778   -0.0800
      2 C2        -10.4113    1.2970   65.2065 C.2     1  ZINC000963156778    0.0300
      3 C3        -10.6970    0.6095   64.0763 C.2     1  ZINC000963156778   -0.2600
      4 C4         -9.7307    0.0118   63.0863 C.3     1  ZINC000963156778    0.1300
      5 N5        -10.3484   -1.1553   62.4427 N.3     1  ZINC000963156778   -0.5000
      6 C6         -9.3175   -2.0366   61.8364 C.3     1  ZINC000963156778    0.0600
      7 C7        -10.0844   -2.8647   60.7831 C.3     1  ZINC000963156778   -0.1700
      8 H8        -10.1538   -3.9411   60.9398 H       1  ZINC000963156778    0.1200
      9 C9        -11.3209   -2.0140   60.4271 C.3     1  ZINC000963156778   -0.1700
     10 H10       -12.3083   -2.4592   60.3047 H       1  ZINC000963156778    0.1200
     11 C11       -11.1971   -0.7434   61.2952 C.3     1  ZINC000963156778    0.0600
     12 C12       -10.1996   -2.3000   59.3658 C.3     1  ZINC000963156778    0.1200
     13 H13        -9.5423   -1.4740   59.0944 H       1  ZINC000963156778    0.1400
     14 N14       -10.5165   -3.2359   58.2842 N.am    1  ZINC000963156778   -0.7000
     15 C15       -10.9983   -2.7742   57.1132 C.2     1  ZINC000963156778    0.5100
     16 O16       -11.1681   -1.5839   56.9544 O.2     1  ZINC000963156778   -0.5000
     17 C17       -11.3260   -3.7371   56.0012 C.3     1  ZINC000963156778   -0.1300
     18 C18       -12.8435   -3.8094   55.8198 C.3     1  ZINC000963156778   -0.1100
     19 H19       -13.2651   -2.8089   55.7221 H       1  ZINC000963156778    0.1300
     20 C20       -13.4958   -4.5605   56.9984 C.3     1  ZINC000963156778   -0.1600
     21 C21       -14.1487   -5.7558   56.3393 C.2     1  ZINC000963156778    0.5300
     22 O22       -14.7792   -6.6172   56.9139 O.2     1  ZINC000963156778   -0.4800
     23 N23       -13.9203   -5.7112   55.0209 N.am    1  ZINC000963156778   -0.6900
     24 C24       -13.1963   -4.6558   54.6163 C.2     1  ZINC000963156778    0.5200
     25 O25       -12.8756   -4.4220   53.4708 O.2     1  ZINC000963156778   -0.4500
     26 S26       -12.4172    0.5733   64.0293 S.3     1  ZINC000963156778    0.4500
     27 N27       -12.6309    1.3773   65.3550 N.2     1  ZINC000963156778   -0.2900
     28 N28       -11.4949    1.6775   65.8519 N.2     1  ZINC000963156778   -0.2400
     29 H29        -8.6662    0.7790   66.3205 H       1  ZINC000963156778    0.0900
     30 H30        -8.3475    1.6751   64.8160 H       1  ZINC000963156778    0.0800
     31 H31        -9.0021    2.5249   66.2365 H       1  ZINC000963156778    0.0800
     32 H32        -9.4806    0.7547   62.3288 H       1  ZINC000963156778    0.1000
     33 H33        -8.8235   -0.2972   63.6054 H       1  ZINC000963156778    0.0700
     34 H34        -8.5404   -1.4398   61.3587 H       1  ZINC000963156778    0.0600
     35 H35        -8.8843   -2.6911   62.5928 H       1  ZINC000963156778    0.0800
     36 H36       -12.1792   -0.4242   61.6440 H       1  ZINC000963156778    0.1000
     37 H37       -10.7143    0.0557   60.7327 H       1  ZINC000963156778    0.0500
     38 H38       -10.3797   -4.1878   58.4108 H       1  ZINC000963156778    0.4000
     39 H39       -10.8654   -3.3931   55.0752 H       1  ZINC000963156778    0.1000
     40 H40       -10.9426   -4.7262   56.2523 H       1  ZINC000963156778    0.1200
     41 H41       -12.7392   -4.8827   57.7138 H       1  ZINC000963156778    0.1200
     42 H42       -14.2438   -3.9347   57.4852 H       1  ZINC000963156778    0.1300
     43 H43       -14.2519   -6.3855   54.4076 H       1  ZINC000963156778    0.4200
@<TRIPOS>BOND
     1     1     2    1
     2     1    29    1
     3     1    30    1
     4     1    31    1
     5     2    28    1
     6     2     3    2
     7     3     4    1
     8     3    26    1
     9     4     5    1
    10     4    32    1
    11     4    33    1
    12     5    11    1
    13     5     6    1
    14     6     7    1
    15     6    34    1
    16     6    35    1
    17     7     8    1
    18     7    12    1
    19     7     9    1
    20     9    10    1
    21     9    11    1
    22     9    12    1
    23    11    36    1
    24    11    37    1
    25    12    13    1
    26    12    14    1
    27    14    15   am
    28    14    38    1
    29    15    16    2
    30    15    17    1
    31    17    18    1
    32    17    39    1
    33    17    40    1
    34    18    19    1
    35    18    24    1
    36    18    20    1
    37    20    21    1
    38    20    41    1
    39    20    42    1
    40    21    22    2
    41    21    23   am
    42    23    24   am
    43    23    43    1
    44    24    25    2
    45    26    27    1
    46    27    28    2
@<TRIPOS>SUBSTRUCTURE
     1 ZINC000963156778        1 TEMP              0 ****  ****    0 ROOT


##########                                Name:    ZINC001217683559
##########                DOCK_Rotatable_Bonds:                   3
##########                         Heavy_Atoms:                  25
##########                    Molecular_Weight:             397.234
##########                DOCK_Rotatable_Bonds:                   3
##########                       Formal_Charge:          0.00999987
##########                     HBond_Acceptors:                   7
##########                        HBond_Donors:                   0
##########                         Heavy_Atoms:                  25
##########                          Grid_Score:          -35.740387
##########                     Grid_vdw_energy:          -35.841274
##########                      Grid_es_energy:            0.100889
##########           Internal_energy_repulsive:           30.441751

@<TRIPOS>MOLECULE
ZINC001217683559
 38 42 1 0 0
SMALL
USER_CHARGES


@<TRIPOS>ATOM
      1 Br1       -11.5456    1.5793   61.3021 Br      1  ZINC001217683559    0.0100
      2 C2        -10.6579    1.5390   62.9713 C.ar    1  ZINC001217683559   -0.1200
      3 C3        -10.7813    2.5961   63.8588 C.ar    1  ZINC001217683559   -0.0500
      4 C4        -10.1122    2.5234   65.0715 C.ar    1  ZINC001217683559   -0.1500
      5 C5         -9.3472    1.4071   65.3583 C.ar    1  ZINC001217683559    0.1200
      6 N6         -9.2467    0.4163   64.4964 N.ar    1  ZINC001217683559   -0.4400
      7 C7         -9.8748    0.4432   63.3290 C.ar    1  ZINC001217683559    0.2200
      8 C8         -9.7316   -0.6973   62.3891 C.2     1  ZINC001217683559    0.2100
      9 N9         -8.9482   -1.7337   62.5424 N.2     1  ZINC001217683559   -0.3300
     10 O10        -9.0602   -2.4900   61.6010 O.3     1  ZINC001217683559    0.1000
     11 C11        -9.9517   -2.0005   60.7250 C.2     1  ZINC001217683559    0.2300
     12 C12       -10.3675   -2.6232   59.4514 C.2     1  ZINC001217683559   -0.0600
     13 C13       -10.8335   -1.8452   58.4295 C.2     1  ZINC001217683559    0.1800
     14 N14       -11.2173   -2.4086   57.2573 N.pl3   1  ZINC001217683559   -0.2900
     15 N15       -11.7235   -1.8793   56.0614 N.2     1  ZINC001217683559   -0.3300
     16 C16       -11.9261   -2.8889   55.2484 C.2     1  ZINC001217683559    0.2800
     17 C17       -12.4661   -2.7790   53.8457 C.3     1  ZINC001217683559   -0.0300
     18 C18       -11.8107   -1.6600   53.0192 C.3     1  ZINC001217683559   -0.1200
     19 C19       -11.8353   -2.6327   51.8283 C.3     1  ZINC001217683559   -0.1400
     20 C20       -11.8282   -3.7727   52.8605 C.3     1  ZINC001217683559   -0.1200
     21 N21       -11.5825   -4.0202   55.8481 N.2     1  ZINC001217683559   -0.5300
     22 C22       -11.1460   -3.7617   57.0751 C.2     1  ZINC001217683559    0.2900
     23 C23       -10.6690   -4.5867   58.1123 C.2     1  ZINC001217683559   -0.1000
     24 C24       -10.2784   -4.0256   59.2862 C.2     1  ZINC001217683559   -0.0200
     25 N25       -10.3898   -0.8587   61.2224 N.2     1  ZINC001217683559   -0.4300
     26 H26       -11.3844    3.4572   63.6115 H       1  ZINC001217683559    0.1600
     27 H27       -10.1875    3.3306   65.7850 H       1  ZINC001217683559    0.1500
     28 H28        -8.8250    1.3474   66.3018 H       1  ZINC001217683559    0.1800
     29 H29       -10.8968   -0.7745   58.5563 H       1  ZINC001217683559    0.1900
     30 H30       -13.5554   -2.7685   53.8112 H       1  ZINC001217683559    0.1200
     31 H31       -12.4490   -0.7868   52.8830 H       1  ZINC001217683559    0.0700
     32 H32       -10.8053   -1.4028   53.3522 H       1  ZINC001217683559    0.1000
     33 H33       -12.7523   -2.5810   51.2413 H       1  ZINC001217683559    0.0800
     34 H34       -10.9357   -2.5939   51.2143 H       1  ZINC001217683559    0.0800
     35 H35       -10.8273   -4.0931   53.1501 H       1  ZINC001217683559    0.0900
     36 H36       -12.4802   -4.6051   52.5962 H       1  ZINC001217683559    0.0700
     37 H37       -10.6108   -5.6562   57.9742 H       1  ZINC001217683559    0.1700
     38 H38        -9.9107   -4.6459   60.0901 H       1  ZINC001217683559    0.1700
@<TRIPOS>BOND
     1     1     2    1
     2     2     7   ar
     3     2     3   ar
     4     3     4   ar
     5     3    26    1
     6     4     5   ar
     7     4    27    1
     8     5     6   ar
     9     5    28    1
    10     6     7   ar
    11     7     8    1
    12     8    25    1
    13     8     9    2
    14     9    10    1
    15    10    11    1
    16    11    12    1
    17    11    25    2
    18    12    24    1
    19    12    13    2
    20    13    14    1
    21    13    29    1
    22    14    22    1
    23    14    15    1
    24    15    16    2
    25    16    17    1
    26    16    21    1
    27    17    20    1
    28    17    18    1
    29    17    30    1
    30    18    19    1
    31    18    31    1
    32    18    32    1
    33    19    20    1
    34    19    33    1
    35    19    34    1
    36    20    35    1
    37    20    36    1
    38    21    22    2
    39    22    23    1
    40    23    24    2
    41    23    37    1
    42    24    38    1
@<TRIPOS>SUBSTRUCTURE
     1 ZINC001217683559        1 TEMP              0 ****  ****    0 ROOT


##########                                Name:    ZINC000503413572
##########                DOCK_Rotatable_Bonds:                   7
##########                         Heavy_Atoms:                  26
##########                    Molecular_Weight:             355.375
##########                DOCK_Rotatable_Bonds:                   7
##########                       Formal_Charge:        -1.71363e-07
##########                     HBond_Acceptors:                   9
##########                        HBond_Donors:                   1
##########                         Heavy_Atoms:                  26
##########                          Grid_Score:          -35.707302
##########                     Grid_vdw_energy:          -35.357632
##########                      Grid_es_energy:           -0.349672
##########           Internal_energy_repulsive:           11.875633

@<TRIPOS>MOLECULE
ZINC000503413572
 44 47 1 0 0
SMALL
USER_CHARGES


@<TRIPOS>ATOM
      1 C1        -11.1498   -0.0479   59.6250 C.3     1  ZINC000503413572   -0.1200
      2 C2        -10.5099   -0.1859   60.9824 C.ar    1  ZINC000503413572   -0.0200
      3 C3        -10.5541    0.8650   61.8770 C.ar    1  ZINC000503413572   -0.1400
      4 C4         -9.9665    0.7384   63.1249 C.ar    1  ZINC000503413572    0.1300
      5 F5        -10.0110    1.7675   63.9990 F       1  ZINC000503413572   -0.1300
      6 C6         -9.3340   -0.4417   63.4777 C.ar    1  ZINC000503413572   -0.1400
      7 C7         -9.2878   -1.4950   62.5854 C.ar    1  ZINC000503413572   -0.0700
      8 C8         -9.8806   -1.3719   61.3364 C.ar    1  ZINC000503413572    0.1000
      9 N9         -9.8352   -2.4408   60.4291 N.pl3   1  ZINC000503413572   -0.3100
     10 C10       -10.8798   -2.9730   59.7585 C.2     1  ZINC000503413572    0.1100
     11 C11       -10.3807   -3.9867   58.9905 C.2     1  ZINC000503413572   -0.1000
     12 C12       -11.1647   -4.8511   58.0882 C.2     1  ZINC000503413572    0.6100
     13 O13       -10.7492   -5.9543   57.7901 O.2     1  ZINC000503413572   -0.5300
     14 N14       -12.3415   -4.4181   57.5942 N.am    1  ZINC000503413572   -0.7200
     15 C15       -13.1210   -5.2772   56.6994 C.3     1  ZINC000503413572    0.1100
     16 C16       -14.5791   -5.3057   57.1619 C.3     1  ZINC000503413572    0.1000
     17 N17       -15.3053   -4.1865   56.5567 N.pl3   1  ZINC000503413572   -0.4700
     18 C18       -15.3093   -3.8289   55.2498 C.2     1  ZINC000503413572    0.1500
     19 N19       -16.0808   -2.7823   55.1361 N.2     1  ZINC000503413572   -0.2900
     20 N20       -16.5561   -2.4674   56.2887 N.2     1  ZINC000503413572   -0.2900
     21 C21       -16.1139   -3.3023   57.1893 C.2     1  ZINC000503413572    0.2100
     22 C22       -16.4351   -3.2807   58.6615 C.3     1  ZINC000503413572   -0.1000
     23 C23       -15.5315   -2.4441   59.5695 C.3     1  ZINC000503413572   -0.1500
     24 C24       -16.9503   -1.9670   59.2530 C.3     1  ZINC000503413572   -0.1600
     25 N25        -9.0546   -4.0634   59.1960 N.2     1  ZINC000503413572   -0.2000
     26 N26        -8.6957   -3.1587   60.0389 N.2     1  ZINC000503413572   -0.0400
     27 H27       -12.1592   -0.4582   59.6557 H       1  ZINC000503413572    0.0900
     28 H28       -11.1940    1.0058   59.3496 H       1  ZINC000503413572    0.0800
     29 H29       -10.5589   -0.5916   58.8878 H       1  ZINC000503413572    0.0700
     30 H30       -11.0467    1.7863   61.6033 H       1  ZINC000503413572    0.1500
     31 H31        -8.8760   -0.5385   64.4510 H       1  ZINC000503413572    0.1500
     32 H32        -8.7940   -2.4152   62.8608 H       1  ZINC000503413572    0.1500
     33 H33       -11.9111   -2.6581   59.8183 H       1  ZINC000503413572    0.2100
     34 H34       -12.6724   -3.5375   57.8310 H       1  ZINC000503413572    0.4100
     35 H35       -13.0696   -4.8854   55.6836 H       1  ZINC000503413572    0.0800
     36 H36       -12.7134   -6.2880   56.7200 H       1  ZINC000503413572    0.0800
     37 H37       -15.0391   -6.2453   56.8559 H       1  ZINC000503413572    0.1100
     38 H38       -14.6176   -5.2191   58.2478 H       1  ZINC000503413572    0.1100
     39 H39       -14.7729   -4.3186   54.4505 H       1  ZINC000503413572    0.2200
     40 H40       -16.8381   -4.2081   59.0685 H       1  ZINC000503413572    0.1200
     41 H41       -15.3398   -2.8211   60.5741 H       1  ZINC000503413572    0.1100
     42 H42       -14.7047   -1.9094   59.1020 H       1  ZINC000503413572    0.1100
     43 H43       -17.0570   -1.1184   58.5772 H       1  ZINC000503413572    0.1000
     44 H44       -17.6921   -2.0303   60.0492 H       1  ZINC000503413572    0.1100
@<TRIPOS>BOND
     1     1     2    1
     2     1    27    1
     3     1    28    1
     4     1    29    1
     5     2     8   ar
     6     2     3   ar
     7     3     4   ar
     8     3    30    1
     9     4     5    1
    10     4     6   ar
    11     6     7   ar
    12     6    31    1
    13     7     8   ar
    14     7    32    1
    15     8     9    1
    16     9    26    1
    17     9    10    1
    18    10    11    2
    19    10    33    1
    20    11    12    1
    21    11    25    1
    22    12    13    2
    23    12    14   am
    24    14    15    1
    25    14    34    1
    26    15    16    1
    27    15    35    1
    28    15    36    1
    29    16    17    1
    30    16    37    1
    31    16    38    1
    32    17    21    1
    33    17    18    1
    34    18    19    2
    35    18    39    1
    36    19    20    1
    37    20    21    2
    38    21    22    1
    39    22    24    1
    40    22    23    1
    41    22    40    1
    42    23    24    1
    43    23    41    1
    44    23    42    1
    45    24    43    1
    46    24    44    1
    47    25    26    2
@<TRIPOS>SUBSTRUCTURE
     1 ZINC000503413572        1 TEMP              0 ****  ****    0 ROOT


##########                                Name:    ZINC000188380122
##########                DOCK_Rotatable_Bonds:                   6
##########                         Heavy_Atoms:                  27
##########                    Molecular_Weight:             396.433
##########                DOCK_Rotatable_Bonds:                   6
##########                       Formal_Charge:           0.0299998
##########                     HBond_Acceptors:                   8
##########                        HBond_Donors:                   1
##########                         Heavy_Atoms:                  27
##########                          Grid_Score:          -35.697521
##########                     Grid_vdw_energy:          -35.452099
##########                      Grid_es_energy:           -0.245424
##########           Internal_energy_repulsive:            9.885209

@<TRIPOS>MOLECULE
ZINC000188380122
 46 49 1 0 0
SMALL
USER_CHARGES


@<TRIPOS>ATOM
      1 O1        -11.5140   -4.6789   52.8963 O.2     1  ZINC000188380122   -0.5200
      2 C2        -12.3391   -3.7903   52.9193 C.2     1  ZINC000188380122    0.5200
      3 C3        -12.1808   -2.5917   52.0198 C.3     1  ZINC000188380122   -0.0700
      4 C4        -11.3477   -1.5470   52.7168 C.2     1  ZINC000188380122    0.0900
      5 C5        -11.6875   -1.0475   53.9098 C.2     1  ZINC000188380122   -0.2400
      6 S6        -10.4687    0.1359   54.3791 S.3     1  ZINC000188380122    0.1000
      7 C7         -9.5997   -0.1709   52.8776 C.2     1  ZINC000188380122    0.1100
      8 C8         -8.3421    0.4876   52.4640 C.ar    1  ZINC000188380122   -0.0200
      9 C9         -7.5003   -0.1288   51.5375 C.ar    1  ZINC000188380122   -0.0400
     10 C10        -6.3283    0.4912   51.1553 C.ar    1  ZINC000188380122   -0.1200
     11 C11        -5.9870    1.7210   51.6890 C.ar    1  ZINC000188380122   -0.0600
     12 C12        -6.8175    2.3375   52.6084 C.ar    1  ZINC000188380122   -0.1800
     13 C13        -6.4379    3.6775   53.1842 C.3     1  ZINC000188380122    0.5100
     14 F14        -5.8212    3.4935   54.4264 F       1  ZINC000188380122   -0.1700
     15 F15        -5.5529    4.3247   52.3153 F       1  ZINC000188380122   -0.1700
     16 F16        -7.5877    4.4582   53.3454 F       1  ZINC000188380122   -0.1700
     17 C17        -7.9947    1.7309   52.9944 C.ar    1  ZINC000188380122   -0.0500
     18 N18       -10.2401   -1.0749   52.1930 N.2     1  ZINC000188380122   -0.4300
     19 N19       -13.4006   -3.8775   53.7453 N.am    1  ZINC000188380122   -0.7200
     20 C20       -13.5544   -5.0428   54.6197 C.3     1  ZINC000188380122    0.1300
     21 H21       -13.1033   -5.9450   54.2067 H       1  ZINC000188380122    0.1200
     22 C22       -14.9929   -5.2485   55.1267 C.3     1  ZINC000188380122   -0.1800
     23 C23       -14.3638   -5.6414   56.4685 C.3     1  ZINC000188380122    0.0900
     24 H24       -14.1021   -6.6992   56.4970 H       1  ZINC000188380122    0.1200
     25 O25       -15.0888   -5.2600   57.6105 O.3     1  ZINC000188380122   -0.3700
     26 C26       -15.2093   -3.8870   57.9334 C.3     1  ZINC000188380122    0.0700
     27 C27       -13.8513   -3.1899   57.8652 C.3     1  ZINC000188380122   -0.1600
     28 C28       -13.3158   -3.3010   56.4344 C.3     1  ZINC000188380122   -0.1100
     29 C29       -13.1632   -4.7713   56.0866 C.3     1  ZINC000188380122   -0.1500
     30 H30       -12.1979   -5.1859   56.3768 H       1  ZINC000188380122    0.0900
     31 H31       -11.6868   -2.8932   51.0960 H       1  ZINC000188380122    0.1100
     32 H32       -13.1626   -2.1786   51.7887 H       1  ZINC000188380122    0.1100
     33 H33       -12.5588   -1.3216   54.4861 H       1  ZINC000188380122    0.1800
     34 H34        -7.7653   -1.0892   51.1206 H       1  ZINC000188380122    0.1500
     35 H35        -5.6759    0.0154   50.4383 H       1  ZINC000188380122    0.1400
     36 H36        -5.0683    2.2018   51.3872 H       1  ZINC000188380122    0.1500
     37 H37        -8.6420    2.2132   53.7119 H       1  ZINC000188380122    0.1400
     38 H38       -14.0625   -3.1686   53.7608 H       1  ZINC000188380122    0.4000
     39 H39       -15.5782   -4.3298   55.1693 H       1  ZINC000188380122    0.0900
     40 H40       -15.5189   -6.0658   54.6332 H       1  ZINC000188380122    0.0800
     41 H41       -15.8918   -3.4117   57.2289 H       1  ZINC000188380122    0.0500
     42 H42       -15.6116   -3.7900   58.9417 H       1  ZINC000188380122    0.1000
     43 H43       -13.9656   -2.1393   58.1326 H       1  ZINC000188380122    0.0800
     44 H44       -13.1575   -3.6719   58.5540 H       1  ZINC000188380122    0.0800
     45 H45       -14.0176   -2.8327   55.7442 H       1  ZINC000188380122    0.0700
     46 H46       -12.3477   -2.8049   56.3669 H       1  ZINC000188380122    0.0800
@<TRIPOS>BOND
     1     1     2    2
     2     2     3    1
     3     2    19   am
     4     3     4    1
     5     3    31    1
     6     3    32    1
     7     4    18    1
     8     4     5    2
     9     5     6    1
    10     5    33    1
    11     6     7    1
    12     7     8    1
    13     7    18    2
    14     8    17   ar
    15     8     9   ar
    16     9    10   ar
    17     9    34    1
    18    10    11   ar
    19    10    35    1
    20    11    12   ar
    21    11    36    1
    22    12    13    1
    23    12    17   ar
    24    13    14    1
    25    13    15    1
    26    13    16    1
    27    17    37    1
    28    19    20    1
    29    19    38    1
    30    20    21    1
    31    20    29    1
    32    20    22    1
    33    22    23    1
    34    22    39    1
    35    22    40    1
    36    23    24    1
    37    23    29    1
    38    23    25    1
    39    25    26    1
    40    26    27    1
    41    26    41    1
    42    26    42    1
    43    27    28    1
    44    27    43    1
    45    27    44    1
    46    28    29    1
    47    28    45    1
    48    28    46    1
    49    29    30    1
@<TRIPOS>SUBSTRUCTURE
     1 ZINC000188380122        1 TEMP              0 ****  ****    0 ROOT


##########                                Name:    ZINC000011157684
##########                DOCK_Rotatable_Bonds:                   7
##########                         Heavy_Atoms:                  25
##########                    Molecular_Weight:             374.866
##########                DOCK_Rotatable_Bonds:                   7
##########                       Formal_Charge:           0.0400001
##########                     HBond_Acceptors:                   6
##########                        HBond_Donors:                   2
##########                         Heavy_Atoms:                  25
##########                          Grid_Score:          -35.693844
##########                     Grid_vdw_energy:          -34.794930
##########                      Grid_es_energy:           -0.898915
##########           Internal_energy_repulsive:            5.991384

@<TRIPOS>MOLECULE
ZINC000011157684
 41 43 1 0 0
SMALL
USER_CHARGES


@<TRIPOS>ATOM
      1 O1        -10.2417   -4.7869   58.6634 O.2     1  ZINC000011157684   -0.5200
      2 C2        -10.1023   -3.5966   58.4771 C.2     1  ZINC000011157684    0.5100
      3 C3         -9.3517   -2.7598   59.4807 C.3     1  ZINC000011157684    0.1000
      4 N4         -9.9316   -2.9562   60.8116 N.pl3   1  ZINC000011157684   -0.7300
      5 C5        -10.1079   -1.8628   61.6663 C.ar    1  ZINC000011157684    0.2200
      6 C6         -9.1091   -1.5153   62.5654 C.ar    1  ZINC000011157684   -0.1600
      7 C7         -9.2848   -0.4347   63.4084 C.ar    1  ZINC000011157684   -0.0900
      8 C8        -10.4562    0.3013   63.3576 C.ar    1  ZINC000011157684    0.0500
      9 F9        -10.6257    1.3571   64.1833 F       1  ZINC000011157684   -0.1400
     10 C10       -11.4544   -0.0426   62.4613 C.ar    1  ZINC000011157684   -0.0900
     11 C11       -11.2810   -1.1192   61.6126 C.ar    1  ZINC000011157684   -0.0900
     12 Cl12      -12.5323   -1.5504   60.4892 Cl      1  ZINC000011157684   -0.0500
     13 N13       -10.6137   -3.0233   57.3698 N.am    1  ZINC000011157684   -0.7200
     14 C14       -11.3434   -3.8368   56.3941 C.3     1  ZINC000011157684    0.2600
     15 H15       -10.8444   -4.7989   56.2774 H       1  ZINC000011157684    0.1200
     16 C16       -11.3744   -3.1227   55.0674 C.2     1  ZINC000011157684   -0.1900
     17 C17       -11.1964   -3.7008   53.8786 C.2     1  ZINC000011157684   -0.1200
     18 C18       -11.2688   -2.8417   52.7956 C.2     1  ZINC000011157684   -0.1300
     19 C19       -11.5054   -1.5660   53.1049 C.2     1  ZINC000011157684   -0.2100
     20 S20       -11.6582   -1.4006   54.8493 S.3     1  ZINC000011157684    0.1100
     21 C21       -12.7532   -4.0579   56.8786 C.ar    1  ZINC000011157684   -0.0900
     22 C22       -13.3248   -5.3136   56.7922 C.ar    1  ZINC000011157684   -0.1100
     23 C23       -14.6179   -5.5164   57.2366 C.ar    1  ZINC000011157684   -0.1100
     24 C24       -15.3393   -4.4637   57.7679 C.ar    1  ZINC000011157684   -0.1100
     25 C25       -14.7674   -3.2083   57.8552 C.ar    1  ZINC000011157684   -0.1100
     26 C26       -13.4727   -3.0063   57.4147 C.ar    1  ZINC000011157684   -0.1000
     27 H27        -8.3038   -3.0601   59.4931 H       1  ZINC000011157684    0.1000
     28 H28        -9.4249   -1.7080   59.2042 H       1  ZINC000011157684    0.1000
     29 H29       -10.1935   -3.8445   61.1002 H       1  ZINC000011157684    0.4200
     30 H30        -8.1952   -2.0893   62.6062 H       1  ZINC000011157684    0.1400
     31 H31        -8.5077   -0.1642   64.1078 H       1  ZINC000011157684    0.1400
     32 H32       -12.3673    0.5332   62.4231 H       1  ZINC000011157684    0.1500
     33 H33       -10.4987   -2.0720   57.2189 H       1  ZINC000011157684    0.4000
     34 H34       -11.0097   -4.7589   53.7694 H       1  ZINC000011157684    0.1400
     35 H35       -11.1428   -3.1789   51.7773 H       1  ZINC000011157684    0.1400
     36 H36       -11.5935   -0.7587   52.3929 H       1  ZINC000011157684    0.1700
     37 H37       -12.7612   -6.1360   56.3770 H       1  ZINC000011157684    0.1200
     38 H38       -15.0647   -6.4973   57.1684 H       1  ZINC000011157684    0.1300
     39 H39       -16.3499   -4.6221   58.1145 H       1  ZINC000011157684    0.1300
     40 H40       -15.3311   -2.3858   58.2700 H       1  ZINC000011157684    0.1300
     41 H41       -13.0260   -2.0255   57.4830 H       1  ZINC000011157684    0.1300
@<TRIPOS>BOND
     1     1     2    2
     2     2     3    1
     3     2    13   am
     4     3     4    1
     5     3    27    1
     6     3    28    1
     7     4     5    1
     8     4    29    1
     9     5    11   ar
    10     5     6   ar
    11     6     7   ar
    12     6    30    1
    13     7     8   ar
    14     7    31    1
    15     8     9    1
    16     8    10   ar
    17    10    11   ar
    18    10    32    1
    19    11    12    1
    20    13    14    1
    21    13    33    1
    22    14    15    1
    23    14    16    1
    24    14    21    1
    25    16    20    1
    26    16    17    2
    27    17    18    1
    28    17    34    1
    29    18    19    2
    30    18    35    1
    31    19    20    1
    32    19    36    1
    33    21    26   ar
    34    21    22   ar
    35    22    23   ar
    36    22    37    1
    37    23    24   ar
    38    23    38    1
    39    24    25   ar
    40    24    39    1
    41    25    26   ar
    42    25    40    1
    43    26    41    1
@<TRIPOS>SUBSTRUCTURE
     1 ZINC000011157684        1 TEMP              0 ****  ****    0 ROOT


##########                                Name:    ZINC000440379747
##########                DOCK_Rotatable_Bonds:                   8
##########                         Heavy_Atoms:                  27
##########                    Molecular_Weight:             394.452
##########                DOCK_Rotatable_Bonds:                   8
##########                       Formal_Charge:           0.0199995
##########                     HBond_Acceptors:                  10
##########                        HBond_Donors:                   3
##########                         Heavy_Atoms:                  27
##########                          Grid_Score:          -35.688839
##########                     Grid_vdw_energy:          -33.730354
##########                      Grid_es_energy:           -1.958486
##########           Internal_energy_repulsive:           28.550262

@<TRIPOS>MOLECULE
ZINC000440379747
 49 51 1 0 0
SMALL
USER_CHARGES


@<TRIPOS>ATOM
      1 C1         -9.6610    1.3018   65.1701 C.3     1  ZINC000440379747   -0.1800
      2 C2         -9.5528    0.2812   64.0665 C.2     1  ZINC000440379747    0.5200
      3 O3         -8.9670   -0.7629   64.2615 O.2     1  ZINC000440379747   -0.5200
      4 N4        -10.1066    0.5287   62.8630 N.am    1  ZINC000440379747   -0.5500
      5 C5        -10.8363    1.7491   62.5090 C.3     1  ZINC000440379747    0.1100
      6 C6        -11.2638    1.5535   61.0454 C.3     1  ZINC000440379747   -0.0900
      7 C7        -10.7254    0.1913   60.6695 C.ar    1  ZINC000440379747   -0.1100
      8 C8        -10.8003   -0.5151   59.4857 C.ar    1  ZINC000440379747   -0.0700
      9 C9        -10.2154   -1.7712   59.3860 C.ar    1  ZINC000440379747    0.1200
     10 N10       -10.2898   -2.4879   58.1876 N.am    1  ZINC000440379747   -0.6400
     11 C11       -11.4836   -2.9168   57.7320 C.2     1  ZINC000440379747    0.5100
     12 O12       -12.4939   -2.6810   58.3621 O.2     1  ZINC000440379747   -0.4900
     13 C13       -11.5631   -3.6822   56.4522 C.2     1  ZINC000440379747    0.5200
     14 O14       -11.5869   -4.8954   56.4712 O.2     1  ZINC000440379747   -0.5100
     15 N15       -11.6085   -3.0255   55.2761 N.am    1  ZINC000440379747   -0.5800
     16 C16       -11.5870   -1.5610   55.1083 C.3     1  ZINC000440379747    0.1000
     17 C17       -11.0400   -1.3339   53.6769 C.3     1  ZINC000440379747   -0.1300
     18 C18       -11.6878   -2.5136   52.9050 C.3     1  ZINC000440379747   -0.1600
     19 C19       -11.6812   -3.6513   53.9477 C.3     1  ZINC000440379747    0.1500
     20 H20       -10.8165   -4.2954   53.7881 H       1  ZINC000440379747    0.1000
     21 C21       -12.9684   -4.4704   53.8323 C.3     1  ZINC000440379747   -0.6500
     22 S22       -14.3309   -3.5700   54.6217 S.o2    1  ZINC000440379747    2.6200
     23 N23       -15.6967   -4.3490   54.1021 N.am    1  ZINC000440379747   -1.2500
     24 O24       -14.3202   -3.7811   56.0269 O.2     1  ZINC000440379747   -0.9500
     25 O25       -14.4453   -2.2621   54.0782 O.2     1  ZINC000440379747   -0.9500
     26 C26        -9.5557   -2.3117   60.4827 C.ar    1  ZINC000440379747   -0.1000
     27 C27        -9.4821   -1.6049   61.6630 C.ar    1  ZINC000440379747   -0.1400
     28 C28       -10.0637   -0.3397   61.7662 C.ar    1  ZINC000440379747    0.1400
     29 H29        -9.1568    0.9282   66.0612 H       1  ZINC000440379747    0.1000
     30 H30        -9.1928    2.2329   64.8511 H       1  ZINC000440379747    0.1000
     31 H31       -10.7119    1.4823   65.3960 H       1  ZINC000440379747    0.1000
     32 H32       -11.7128    1.8638   63.1468 H       1  ZINC000440379747    0.0900
     33 H33       -10.1853    2.6186   62.5998 H       1  ZINC000440379747    0.0900
     34 H34       -12.3505    1.5691   60.9615 H       1  ZINC000440379747    0.0900
     35 H35       -10.8218    2.3244   60.4142 H       1  ZINC000440379747    0.1000
     36 H36       -11.3145   -0.0907   58.6362 H       1  ZINC000440379747    0.1400
     37 H37        -9.4824   -2.6764   57.6842 H       1  ZINC000440379747    0.4200
     38 H38       -12.5941   -1.1540   55.1986 H       1  ZINC000440379747    0.0800
     39 H39       -10.9251   -1.1045   55.8443 H       1  ZINC000440379747    0.1000
     40 H40       -11.3741   -0.3759   53.2784 H       1  ZINC000440379747    0.1000
     41 H41        -9.9525   -1.4051   53.6583 H       1  ZINC000440379747    0.0800
     42 H42       -12.7061   -2.2659   52.6057 H       1  ZINC000440379747    0.1000
     43 H43       -11.0850   -2.7847   52.0382 H       1  ZINC000440379747    0.1000
     44 H44       -13.2020   -4.6336   52.7803 H       1  ZINC000440379747    0.1500
     45 H45       -12.8328   -5.4317   54.3278 H       1  ZINC000440379747    0.1400
     46 H46       -16.5700   -4.0441   54.3944 H       1  ZINC000440379747    0.4100
     47 H47       -15.6236   -5.1103   53.5056 H       1  ZINC000440379747    0.4200
     48 H48        -9.0998   -3.2879   60.4098 H       1  ZINC000440379747    0.1400
     49 H49        -8.9682   -2.0303   62.5123 H       1  ZINC000440379747    0.1500
@<TRIPOS>BOND
     1     1     2    1
     2     1    29    1
     3     1    30    1
     4     1    31    1
     5     2     3    2
     6     2     4   am
     7     4    28    1
     8     4     5    1
     9     5     6    1
    10     5    32    1
    11     5    33    1
    12     6     7    1
    13     6    34    1
    14     6    35    1
    15     7    28   ar
    16     7     8   ar
    17     8     9   ar
    18     8    36    1
    19     9    10    1
    20     9    26   ar
    21    10    11   am
    22    10    37    1
    23    11    12    2
    24    11    13    1
    25    13    14    2
    26    13    15   am
    27    15    19    1
    28    15    16    1
    29    16    17    1
    30    16    38    1
    31    16    39    1
    32    17    18    1
    33    17    40    1
    34    17    41    1
    35    18    19    1
    36    18    42    1
    37    18    43    1
    38    19    20    1
    39    19    21    1
    40    21    22    1
    41    21    44    1
    42    21    45    1
    43    22    23   am
    44    22    24    2
    45    22    25    2
    46    23    46    1
    47    23    47    1
    48    26    27   ar
    49    26    48    1
    50    27    28   ar
    51    27    49    1
@<TRIPOS>SUBSTRUCTURE
     1 ZINC000440379747        1 TEMP              0 ****  ****    0 ROOT


##########                                Name:    ZINC000822206030
##########                DOCK_Rotatable_Bonds:                   7
##########                         Heavy_Atoms:                  29
##########                    Molecular_Weight:             391.448
##########                DOCK_Rotatable_Bonds:                   7
##########                       Formal_Charge:         -0.00999995
##########                     HBond_Acceptors:                   7
##########                        HBond_Donors:                   1
##########                         Heavy_Atoms:                  29
##########                          Grid_Score:          -35.684917
##########                     Grid_vdw_energy:          -35.262733
##########                      Grid_es_energy:           -0.422185
##########           Internal_energy_repulsive:           23.349209

@<TRIPOS>MOLECULE
ZINC000822206030
 51 55 1 0 0
SMALL
USER_CHARGES


@<TRIPOS>ATOM
      1 C1        -13.8282   -5.9237   56.1753 C.3     1  ZINC000822206030   -0.1300
      2 C2        -14.2740   -4.6691   56.8812 C.ar    1  ZINC000822206030   -0.0400
      3 C3        -15.2067   -4.7421   57.8969 C.ar    1  ZINC000822206030   -0.1500
      4 C4        -15.6171   -3.5893   58.5456 C.ar    1  ZINC000822206030    0.1100
      5 F5        -16.5299   -3.6627   59.5387 F       1  ZINC000822206030   -0.1400
      6 C6        -15.0928   -2.3617   58.1779 C.ar    1  ZINC000822206030   -0.1500
      7 C7        -14.1596   -2.2844   57.1623 C.ar    1  ZINC000822206030   -0.0800
      8 C8        -13.7430   -3.4394   56.5144 C.ar    1  ZINC000822206030    0.1100
      9 N9        -12.7968   -3.3634   55.4850 N.am    1  ZINC000822206030   -0.5600
     10 C10       -11.3684   -3.4668   55.7938 C.3     1  ZINC000822206030    0.1500
     11 C11       -11.0922   -2.8068   57.1200 C.ar    1  ZINC000822206030   -0.0900
     12 C12       -11.0999   -1.4271   57.2180 C.ar    1  ZINC000822206030   -0.1000
     13 C13       -10.8480   -0.8174   58.4303 C.ar    1  ZINC000822206030   -0.0800
     14 C14       -10.5856   -1.5941   59.5565 C.ar    1  ZINC000822206030   -0.0100
     15 C15       -10.3143   -0.9439   60.8633 C.2     1  ZINC000822206030    0.2200
     16 N16       -10.4243    0.3396   61.1420 N.2     1  ZINC000822206030   -0.2900
     17 N17       -10.1014    0.5039   62.3787 N.pl3   1  ZINC000822206030   -0.2300
     18 N18        -9.7903   -0.6348   62.8923 N.2     1  ZINC000822206030   -0.0500
     19 N19        -9.9153   -1.5489   61.9911 N.2     1  ZINC000822206030   -0.2700
     20 C20       -10.5789   -2.9832   59.4523 C.ar    1  ZINC000822206030   -0.0800
     21 C21       -10.8373   -3.5828   58.2362 C.ar    1  ZINC000822206030   -0.0900
     22 C22       -13.2001   -3.1949   54.2100 C.2     1  ZINC000822206030    0.5500
     23 O23       -14.3827   -3.1107   53.9541 O.2     1  ZINC000822206030   -0.5000
     24 C24       -12.1818   -3.1111   53.1024 C.3     1  ZINC000822206030   -0.1900
     25 H25       -11.6604   -4.0402   52.8718 H       1  ZINC000822206030    0.1200
     26 C26       -11.3950   -1.8064   52.9632 C.3     1  ZINC000822206030   -0.1400
     27 C27       -12.4779   -2.1603   51.9409 C.3     1  ZINC000822206030   -0.0900
     28 H28       -12.1511   -2.4637   50.9462 H       1  ZINC000822206030    0.1100
     29 C29       -13.7849   -1.3666   51.9925 C.3     1  ZINC000822206030   -0.1100
     30 C30       -14.0966   -0.4414   50.8145 C.3     1  ZINC000822206030   -0.2000
     31 C31       -14.8802   -1.7434   50.9929 C.3     1  ZINC000822206030   -0.1200
     32 H32       -12.9674   -6.3460   56.6939 H       1  ZINC000822206030    0.0900
     33 H33       -14.6424   -6.6484   56.1732 H       1  ZINC000822206030    0.0700
     34 H34       -13.5521   -5.6843   55.1484 H       1  ZINC000822206030    0.0700
     35 H35       -15.6165   -5.6987   58.1855 H       1  ZINC000822206030    0.1400
     36 H36       -15.4139   -1.4639   58.6852 H       1  ZINC000822206030    0.1400
     37 H37       -13.7512   -1.3267   56.8755 H       1  ZINC000822206030    0.1400
     38 H38       -11.0828   -4.5176   55.8443 H       1  ZINC000822206030    0.1000
     39 H39       -10.7912   -2.9706   55.0136 H       1  ZINC000822206030    0.0900
     40 H40       -11.3032   -0.8258   56.3442 H       1  ZINC000822206030    0.1300
     41 H41       -10.8540    0.2599   58.5057 H       1  ZINC000822206030    0.1400
     42 H42       -10.0937    1.3524   62.8487 H       1  ZINC000822206030    0.4800
     43 H43       -10.3756   -3.5901   60.3223 H       1  ZINC000822206030    0.1300
     44 H44       -10.8325   -4.6597   58.1542 H       1  ZINC000822206030    0.1400
     45 H45       -11.6141   -1.0085   53.6728 H       1  ZINC000822206030    0.1000
     46 H46       -10.3562   -1.8770   52.6407 H       1  ZINC000822206030    0.1000
     47 H47       -14.0989   -1.0422   52.9846 H       1  ZINC000822206030    0.1000
     48 H48       -14.6158    0.4922   51.0315 H       1  ZINC000822206030    0.0900
     49 H49       -13.3706   -0.3981   50.0028 H       1  ZINC000822206030    0.0900
     50 H50       -14.6696   -2.5566   50.2983 H       1  ZINC000822206030    0.0800
     51 H51       -15.9148   -1.6663   51.3271 H       1  ZINC000822206030    0.0900
@<TRIPOS>BOND
     1     1     2    1
     2     1    32    1
     3     1    33    1
     4     1    34    1
     5     2     8   ar
     6     2     3   ar
     7     3     4   ar
     8     3    35    1
     9     4     5    1
    10     4     6   ar
    11     6     7   ar
    12     6    36    1
    13     7     8   ar
    14     7    37    1
    15     8     9    1
    16     9    10    1
    17     9    22   am
    18    10    11    1
    19    10    38    1
    20    10    39    1
    21    11    21   ar
    22    11    12   ar
    23    12    13   ar
    24    12    40    1
    25    13    14   ar
    26    13    41    1
    27    14    15    1
    28    14    20   ar
    29    15    19    1
    30    15    16    2
    31    16    17    1
    32    17    18    1
    33    17    42    1
    34    18    19    2
    35    20    21   ar
    36    20    43    1
    37    21    44    1
    38    22    23    2
    39    22    24    1
    40    24    25    1
    41    24    27    1
    42    24    26    1
    43    26    27    1
    44    26    45    1
    45    26    46    1
    46    27    28    1
    47    27    29    1
    48    29    31    1
    49    29    30    1
    50    29    47    1
    51    30    31    1
    52    30    48    1
    53    30    49    1
    54    31    50    1
    55    31    51    1
@<TRIPOS>SUBSTRUCTURE
     1 ZINC000822206030        1 TEMP              0 ****  ****    0 ROOT


##########                                Name:    ZINC001490207225
##########                DOCK_Rotatable_Bonds:                   7
##########                         Heavy_Atoms:                  24
##########                    Molecular_Weight:             334.378
##########                DOCK_Rotatable_Bonds:                   7
##########                       Formal_Charge:           -0.010001
##########                     HBond_Acceptors:                   9
##########                        HBond_Donors:                   3
##########                         Heavy_Atoms:                  24
##########                          Grid_Score:          -35.666664
##########                     Grid_vdw_energy:          -34.912815
##########                      Grid_es_energy:           -0.753851
##########           Internal_energy_repulsive:            4.943714

@<TRIPOS>MOLECULE
ZINC001490207225
 46 48 1 0 0
SMALL
USER_CHARGES


@<TRIPOS>ATOM
      1 C1        -13.3782   -3.2063   53.0787 C.3     1  ZINC001490207225    0.0900
      2 N2        -13.1926   -3.8432   54.3849 N.pl3   1  ZINC001490207225   -0.3600
      3 C3        -12.0416   -3.8994   55.0738 C.2     1  ZINC001490207225    0.1300
      4 C4        -12.2947   -4.5821   56.2466 C.2     1  ZINC001490207225   -0.3000
      5 C5        -11.3211   -4.8825   57.3121 C.2     1  ZINC001490207225    0.6200
      6 O6        -10.7594   -5.9607   57.3361 O.2     1  ZINC001490207225   -0.5400
      7 N7        -11.0536   -3.9620   58.2596 N.am    1  ZINC001490207225   -0.6200
      8 C8        -10.1095   -4.1018   59.3802 C.3     1  ZINC001490207225    0.1100
      9 C9        -10.6821   -3.2667   60.5373 C.3     1  ZINC001490207225   -0.1100
     10 H10       -11.1489   -3.8898   61.3002 H       1  ZINC001490207225    0.1000
     11 C11        -9.5632   -2.3775   61.1195 C.3     1  ZINC001490207225    0.1000
     12 N12       -10.1976   -1.0531   61.3129 N.am    1  ZINC001490207225   -0.6200
     13 C13       -10.0312   -0.1990   62.3420 C.2     1  ZINC001490207225    0.5300
     14 O14       -10.6275    0.8571   62.3561 O.2     1  ZINC001490207225   -0.5300
     15 C15        -9.1042   -0.5560   63.4752 C.3     1  ZINC001490207225    0.1200
     16 N16        -8.5727    0.6699   64.0761 N.am    1  ZINC001490207225   -0.7400
     17 C17        -8.2013    0.6791   65.3717 C.2     1  ZINC001490207225    0.7100
     18 N18        -7.7108    1.8064   65.9240 N.am    1  ZINC001490207225   -0.8600
     19 O19        -8.3086   -0.3295   66.0421 O.2     1  ZINC001490207225   -0.5900
     20 C20       -11.0564   -0.8806   60.1186 C.3     1  ZINC001490207225    0.1100
     21 C21       -11.6928   -2.2933   59.8771 C.3     1  ZINC001490207225   -0.0800
     22 C22       -13.1038   -2.3955   60.4599 C.3     1  ZINC001490207225   -0.1300
     23 C23       -11.6438   -2.6182   58.3722 C.3     1  ZINC001490207225    0.1000
     24 C24       -13.6618   -4.9388   56.2348 C.2     1  ZINC001490207225    0.0700
     25 N25       -14.1864   -4.4904   55.1277 N.2     1  ZINC001490207225   -0.2900
     26 H26       -13.6546   -2.1615   53.2200 H       1  ZINC001490207225    0.0800
     27 H27       -12.4491   -3.2629   52.5116 H       1  ZINC001490207225    0.0900
     28 H28       -14.1691   -3.7208   52.5328 H       1  ZINC001490207225    0.1000
     29 H29       -11.0919   -3.4865   54.7668 H       1  ZINC001490207225    0.1900
     30 H30       -10.0326   -5.1480   59.6763 H       1  ZINC001490207225    0.0900
     31 H31        -9.1293   -3.7208   59.0933 H       1  ZINC001490207225    0.0800
     32 H32        -9.2188   -2.7765   62.0735 H       1  ZINC001490207225    0.0900
     33 H33        -8.7336   -2.3021   60.4166 H       1  ZINC001490207225    0.0900
     34 H34        -9.6523   -1.1218   64.2286 H       1  ZINC001490207225    0.1000
     35 H35        -8.2809   -1.1605   63.0944 H       1  ZINC001490207225    0.1000
     36 H36        -8.4881    1.4749   63.5416 H       1  ZINC001490207225    0.4100
     37 H37        -7.4425    1.8127   66.8562 H       1  ZINC001490207225    0.4000
     38 H38        -7.6263    2.6114   65.3896 H       1  ZINC001490207225    0.4200
     39 H39       -11.8396   -0.1489   60.3165 H       1  ZINC001490207225    0.0900
     40 H40       -10.4572   -0.5742   59.2611 H       1  ZINC001490207225    0.0800
     41 H41       -13.7498   -1.6614   59.9784 H       1  ZINC001490207225    0.0700
     42 H42       -13.4976   -3.3966   60.2847 H       1  ZINC001490207225    0.0600
     43 H43       -13.0690   -2.2012   61.5318 H       1  ZINC001490207225    0.0600
     44 H44       -11.0061   -1.9012   57.8553 H       1  ZINC001490207225    0.0800
     45 H45       -12.6492   -2.5962   57.9518 H       1  ZINC001490207225    0.0900
     46 H46       -14.1823   -5.4834   57.0086 H       1  ZINC001490207225    0.2000
@<TRIPOS>BOND
     1     1     2    1
     2     1    26    1
     3     1    27    1
     4     1    28    1
     5     2    25    1
     6     2     3    1
     7     3     4    2
     8     3    29    1
     9     4     5    1
    10     4    24    1
    11     5     6    2
    12     5     7   am
    13     7    23    1
    14     7     8    1
    15     8     9    1
    16     8    30    1
    17     8    31    1
    18     9    10    1
    19     9    21    1
    20     9    11    1
    21    11    12    1
    22    11    32    1
    23    11    33    1
    24    12    13   am
    25    12    20    1
    26    13    14    2
    27    13    15    1
    28    15    16    1
    29    15    34    1
    30    15    35    1
    31    16    17   am
    32    16    36    1
    33    17    18   am
    34    17    19    2
    35    18    37    1
    36    18    38    1
    37    20    21    1
    38    20    39    1
    39    20    40    1
    40    21    22    1
    41    21    23    1
    42    22    41    1
    43    22    42    1
    44    22    43    1
    45    23    44    1
    46    23    45    1
    47    24    25    2
    48    24    46    1
@<TRIPOS>SUBSTRUCTURE
     1 ZINC001490207225        1 TEMP              0 ****  ****    0 ROOT


##########                                Name:    ZINC000637608314
##########                DOCK_Rotatable_Bonds:                   9
##########                         Heavy_Atoms:                  28
##########                    Molecular_Weight:             387.479
##########                DOCK_Rotatable_Bonds:                   9
##########                       Formal_Charge:           0.0499991
##########                     HBond_Acceptors:                   7
##########                        HBond_Donors:                   2
##########                         Heavy_Atoms:                  28
##########                          Grid_Score:          -35.580704
##########                     Grid_vdw_energy:          -34.772770
##########                      Grid_es_energy:           -0.807935
##########           Internal_energy_repulsive:           18.955656

@<TRIPOS>MOLECULE
ZINC000637608314
 57 59 1 0 0
SMALL
USER_CHARGES


@<TRIPOS>ATOM
      1 C1        -11.3351   -2.1130   53.1726 C.3     1  ZINC000637608314   -0.1400
      2 C2        -12.2888   -2.7518   54.1843 C.3     1  ZINC000637608314   -0.0400
      3 C3        -13.5701   -1.9204   54.2727 C.3     1  ZINC000637608314   -0.1500
      4 C4        -12.6329   -4.1729   53.7338 C.3     1  ZINC000637608314   -0.1500
      5 C5        -11.6270   -2.8001   55.5373 C.2     1  ZINC000637608314    0.1900
      6 C6        -11.2917   -1.6462   56.1603 C.2     1  ZINC000637608314   -0.2400
      7 C7        -10.6759   -1.6839   57.4192 C.2     1  ZINC000637608314    0.0200
      8 C8        -10.4219   -2.8909   58.0014 C.2     1  ZINC000637608314   -0.2400
      9 C9         -9.7614   -2.9597   59.3542 C.3     1  ZINC000637608314    0.2100
     10 N10       -10.2886   -1.8939   60.2099 N.am    1  ZINC000637608314   -0.7300
     11 C11        -9.8355   -1.7565   61.4718 C.2     1  ZINC000637608314    0.7100
     12 O12        -8.9902   -2.5181   61.9004 O.2     1  ZINC000637608314   -0.5900
     13 N13       -10.3194   -0.7750   62.2585 N.am    1  ZINC000637608314   -0.6200
     14 C14       -11.3392    0.1415   61.7426 C.3     1  ZINC000637608314    0.2000
     15 C15       -12.6802   -0.5462   61.7451 C.2     1  ZINC000637608314   -0.0400
     16 C16       -13.5952   -0.4822   62.7289 C.2     1  ZINC000637608314   -0.1900
     17 C17       -14.6946   -1.2704   62.3177 C.2     1  ZINC000637608314   -0.2200
     18 C18       -14.3856   -1.7689   61.1071 C.2     1  ZINC000637608314   -0.0300
     19 O19       -13.1667   -1.3222   60.7629 O.3     1  ZINC000637608314   -0.1700
     20 C20        -9.8255   -0.6246   63.6295 C.3     1  ZINC000637608314    0.1300
     21 C21        -9.5065    0.8475   63.8981 C.3     1  ZINC000637608314    0.0700
     22 H22        -9.1981    1.3336   62.9726 H       1  ZINC000637608314    0.0900
     23 C23        -8.3797    0.9561   64.9476 C.3     1  ZINC000637608314   -0.1500
     24 C24        -8.8415    2.1673   65.8029 C.3     1  ZINC000637608314   -0.1600
     25 C25       -10.3801    1.9916   65.7551 C.3     1  ZINC000637608314    0.0500
     26 O26       -10.6618    1.5056   64.4310 O.3     1  ZINC000637608314   -0.3800
     27 C27       -10.7832   -4.0696   57.3268 C.2     1  ZINC000637608314    0.5300
     28 O28       -10.5621   -5.1564   57.8367 O.2     1  ZINC000637608314   -0.5400
     29 N29       -11.3785   -4.0005   56.1210 N.am    1  ZINC000637608314   -0.6000
     30 H30       -11.0900   -1.1006   53.4934 H       1  ZINC000637608314    0.0700
     31 H31       -10.4224   -2.7053   53.1096 H       1  ZINC000637608314    0.0700
     32 H32       -11.8138   -2.0782   52.1939 H       1  ZINC000637608314    0.0700
     33 H33       -14.0488   -1.8855   53.2940 H       1  ZINC000637608314    0.0700
     34 H34       -14.2496   -2.3755   54.9933 H       1  ZINC000637608314    0.0600
     35 H35       -13.3250   -0.9080   54.5935 H       1  ZINC000637608314    0.0700
     36 H36       -11.7201   -4.7652   53.6710 H       1  ZINC000637608314    0.0700
     37 H37       -13.3123   -4.6280   54.4546 H       1  ZINC000637608314    0.0600
     38 H38       -13.1116   -4.1380   52.7552 H       1  ZINC000637608314    0.0700
     39 H39       -11.4982   -0.6972   55.6878 H       1  ZINC000637608314    0.1500
     40 H40       -10.4052   -0.7672   57.9221 H       1  ZINC000637608314    0.1400
     41 H41        -9.9681   -3.9278   59.8106 H       1  ZINC000637608314    0.0800
     42 H42        -8.6847   -2.8345   59.2397 H       1  ZINC000637608314    0.0800
     43 H43       -10.9640   -1.2870   59.8683 H       1  ZINC000637608314    0.4000
     44 H44       -11.3844    1.0281   62.3751 H       1  ZINC000637608314    0.1200
     45 H45       -11.0830    0.4343   60.7244 H       1  ZINC000637608314    0.0900
     46 H46       -13.5068    0.0656   63.6554 H       1  ZINC000637608314    0.1500
     47 H47       -15.6072   -1.4401   62.8697 H       1  ZINC000637608314    0.1500
     48 H48       -15.0129   -2.4153   60.5114 H       1  ZINC000637608314    0.2000
     49 H49       -10.5885   -0.9647   64.3298 H       1  ZINC000637608314    0.0800
     50 H50        -8.9225   -1.2214   63.7579 H       1  ZINC000637608314    0.1000
     51 H51        -8.3253    0.0515   65.5535 H       1  ZINC000637608314    0.0800
     52 H52        -7.4222    1.1617   64.4690 H       1  ZINC000637608314    0.0900
     53 H53        -8.4690    2.0916   66.8246 H       1  ZINC000637608314    0.0800
     54 H54        -8.5392    3.1093   65.3454 H       1  ZINC000637608314    0.0800
     55 H55       -10.7014    1.2654   66.5017 H       1  ZINC000637608314    0.0600
     56 H56       -10.8756    2.9486   65.9192 H       1  ZINC000637608314    0.0800
     57 H57       -11.6257   -4.8177   55.6607 H       1  ZINC000637608314    0.4100
@<TRIPOS>BOND
     1     1     2    1
     2     1    30    1
     3     1    31    1
     4     1    32    1
     5     2     3    1
     6     2     4    1
     7     2     5    1
     8     3    33    1
     9     3    34    1
    10     3    35    1
    11     4    36    1
    12     4    37    1
    13     4    38    1
    14     5    29    1
    15     5     6    2
    16     6     7    1
    17     6    39    1
    18     7     8    2
    19     7    40    1
    20     8     9    1
    21     8    27    1
    22     9    10    1
    23     9    41    1
    24     9    42    1
    25    10    11   am
    26    10    43    1
    27    11    12    2
    28    11    13   am
    29    13    14    1
    30    13    20    1
    31    14    15    1
    32    14    44    1
    33    14    45    1
    34    15    19    1
    35    15    16    2
    36    16    17    1
    37    16    46    1
    38    17    18    2
    39    17    47    1
    40    18    19    1
    41    18    48    1
    42    20    21    1
    43    20    49    1
    44    20    50    1
    45    21    22    1
    46    21    26    1
    47    21    23    1
    48    23    24    1
    49    23    51    1
    50    23    52    1
    51    24    25    1
    52    24    53    1
    53    24    54    1
    54    25    26    1
    55    25    55    1
    56    25    56    1
    57    27    28    2
    58    27    29   am
    59    29    57    1
@<TRIPOS>SUBSTRUCTURE
     1 ZINC000637608314        1 TEMP              0 ****  ****    0 ROOT


##########                                Name:    ZINC001169875900
##########                DOCK_Rotatable_Bonds:                   9
##########                         Heavy_Atoms:                  24
##########                    Molecular_Weight:             329.399
##########                DOCK_Rotatable_Bonds:                   9
##########                       Formal_Charge:          -0.0500002
##########                     HBond_Acceptors:                   6
##########                        HBond_Donors:                   1
##########                         Heavy_Atoms:                  24
##########                          Grid_Score:          -35.573639
##########                     Grid_vdw_energy:          -35.826748
##########                      Grid_es_energy:            0.253110
##########           Internal_energy_repulsive:            8.718843

@<TRIPOS>MOLECULE
ZINC001169875900
 47 48 1 0 0
SMALL
USER_CHARGES


@<TRIPOS>ATOM
      1 C1         -9.1815    0.5794   64.7291 C.3     1  ZINC001169875900   -0.1500
      2 C2        -10.4669    0.9283   63.9761 C.3     1  ZINC001169875900   -0.1300
      3 C3        -10.8227   -0.2112   63.0191 C.3     1  ZINC001169875900    0.0700
      4 O4         -9.6944   -0.5108   62.1949 O.3     1  ZINC001169875900   -0.3100
      5 C5         -9.9243   -1.2530   61.0814 C.ar    1  ZINC001169875900    0.2700
      6 N6         -9.6742   -2.5509   61.0985 N.ar    1  ZINC001169875900   -0.5000
      7 C7         -9.8764   -3.3106   60.0385 C.ar    1  ZINC001169875900    0.0600
      8 C8        -10.3686   -2.7679   58.8612 C.ar    1  ZINC001169875900    0.1400
      9 N9        -10.5802   -3.5795   57.7404 N.pl3   1  ZINC001169875900   -0.7400
     10 C10       -11.6842   -4.5425   57.7315 C.3     1  ZINC001169875900    0.1800
     11 C11       -12.2834   -4.6067   56.3501 C.ar    1  ZINC001169875900    0.1000
     12 C12       -13.3943   -5.4036   56.1236 C.ar    1  ZINC001169875900   -0.1200
     13 C13       -13.9423   -5.4598   54.8514 C.ar    1  ZINC001169875900   -0.0800
     14 C14       -13.3541   -4.7109   53.8446 C.ar    1  ZINC001169875900   -0.1000
     15 C15       -12.2385   -3.9316   54.1444 C.ar    1  ZINC001169875900    0.0900
     16 C16       -11.5983   -3.1257   53.0799 C.2     1  ZINC001169875900    0.5200
     17 O17       -12.0040   -3.1967   51.9376 O.2     1  ZINC001169875900   -0.5000
     18 O18       -10.5663   -2.3136   53.3787 O.3     1  ZINC001169875900   -0.3300
     19 C19       -10.1986   -1.3218   52.3842 C.3     1  ZINC001169875900    0.0600
     20 C20       -11.1913   -0.1585   52.4328 C.3     1  ZINC001169875900   -0.1500
     21 N21       -11.7481   -3.9019   55.3776 N.ar    1  ZINC001169875900   -0.4200
     22 C22       -10.6494   -1.4037   58.8080 C.ar    1  ZINC001169875900   -0.1200
     23 C23       -10.4244   -0.6404   59.9396 C.ar    1  ZINC001169875900   -0.1000
     24 C24       -10.7126    0.8388   59.9317 C.3     1  ZINC001169875900   -0.1000
     25 H25        -8.3698    0.4373   64.0157 H       1  ZINC001169875900    0.0600
     26 H26        -8.9281    1.3912   65.4108 H       1  ZINC001169875900    0.0600
     27 H27        -9.3309   -0.3387   65.2970 H       1  ZINC001169875900    0.0600
     28 H28       -10.3175    1.8466   63.4081 H       1  ZINC001169875900    0.0700
     29 H29       -11.2787    1.0704   64.6895 H       1  ZINC001169875900    0.0700
     30 H30       -11.6614    0.0900   62.3913 H       1  ZINC001169875900    0.0600
     31 H31       -11.0981   -1.0956   63.5936 H       1  ZINC001169875900    0.0600
     32 H32        -9.6556   -4.3666   60.0885 H       1  ZINC001169875900    0.1500
     33 H33        -9.9959   -3.5042   56.9699 H       1  ZINC001169875900    0.4000
     34 H34       -11.3098   -5.5272   58.0112 H       1  ZINC001169875900    0.0800
     35 H35       -12.4467   -4.2278   58.4440 H       1  ZINC001169875900    0.0800
     36 H36       -13.8287   -5.9755   56.9302 H       1  ZINC001169875900    0.1500
     37 H37       -14.8081   -6.0731   54.6498 H       1  ZINC001169875900    0.1500
     38 H38       -13.7546   -4.7311   52.8418 H       1  ZINC001169875900    0.1500
     39 H39        -9.1949   -0.9519   52.5938 H       1  ZINC001169875900    0.0700
     40 H40       -10.2190   -1.7757   51.3935 H       1  ZINC001169875900    0.0700
     41 H41       -12.1949   -0.5283   52.2232 H       1  ZINC001169875900    0.0700
     42 H42       -11.1708    0.2955   53.4235 H       1  ZINC001169875900    0.0700
     43 H43       -10.9151    0.5862   51.6861 H       1  ZINC001169875900    0.0800
     44 H44       -11.0334   -0.9531   57.9047 H       1  ZINC001169875900    0.1400
     45 H45       -11.7423    1.0100   60.2458 H       1  ZINC001169875900    0.0700
     46 H46       -10.5698    1.2313   58.9249 H       1  ZINC001169875900    0.0700
     47 H47       -10.0343    1.3448   60.6187 H       1  ZINC001169875900    0.0700
@<TRIPOS>BOND
     1     1     2    1
     2     1    25    1
     3     1    26    1
     4     1    27    1
     5     2     3    1
     6     2    28    1
     7     2    29    1
     8     3     4    1
     9     3    30    1
    10     3    31    1
    11     4     5    1
    12     5    23   ar
    13     5     6   ar
    14     6     7   ar
    15     7     8   ar
    16     7    32    1
    17     8     9    1
    18     8    22   ar
    19     9    10    1
    20     9    33    1
    21    10    11    1
    22    10    34    1
    23    10    35    1
    24    11    21   ar
    25    11    12   ar
    26    12    13   ar
    27    12    36    1
    28    13    14   ar
    29    13    37    1
    30    14    15   ar
    31    14    38    1
    32    15    16    1
    33    15    21   ar
    34    16    17    2
    35    16    18    1
    36    18    19    1
    37    19    20    1
    38    19    39    1
    39    19    40    1
    40    20    41    1
    41    20    42    1
    42    20    43    1
    43    22    23   ar
    44    22    44    1
    45    23    24    1
    46    24    45    1
    47    24    46    1
    48    24    47    1
@<TRIPOS>SUBSTRUCTURE
     1 ZINC001169875900        1 TEMP              0 ****  ****    0 ROOT


##########                                Name:    ZINC001327099466
##########                DOCK_Rotatable_Bonds:                   7
##########                         Heavy_Atoms:                  27
##########                    Molecular_Weight:             374.483
##########                DOCK_Rotatable_Bonds:                   7
##########                       Formal_Charge:           0.0199998
##########                     HBond_Acceptors:                   7
##########                        HBond_Donors:                   1
##########                         Heavy_Atoms:                  27
##########                          Grid_Score:          -35.559597
##########                     Grid_vdw_energy:          -33.261192
##########                      Grid_es_energy:           -2.298406
##########           Internal_energy_repulsive:           13.704948

@<TRIPOS>MOLECULE
ZINC001327099466
 57 60 1 0 0
SMALL
USER_CHARGES


@<TRIPOS>ATOM
      1 O1        -10.0153   -3.4290   57.9154 O.2     1  ZINC001327099466   -0.4800
      2 C2        -11.2021   -3.6063   58.0984 C.2     1  ZINC001327099466    0.5300
      3 N3        -11.7787   -3.1823   59.2405 N.am    1  ZINC001327099466   -0.6000
      4 C4        -11.0080   -2.5429   60.2177 C.2     1  ZINC001327099466    0.2900
      5 N5        -11.3129   -1.4219   60.8291 N.2     1  ZINC001327099466   -0.3100
      6 N6        -10.2843   -1.1230   61.7317 N.pl3   1  ZINC001327099466   -0.3500
      7 C7        -10.2282    0.0429   62.6170 C.3     1  ZINC001327099466    0.1700
      8 C8        -11.6457    0.4243   63.0485 C.3     1  ZINC001327099466   -0.1300
      9 C9        -11.5870    1.6419   63.9731 C.3     1  ZINC001327099466   -0.1200
     10 C10       -10.7512    1.3039   65.2092 C.3     1  ZINC001327099466   -0.1300
     11 C11        -9.3338    0.9225   64.7776 C.3     1  ZINC001327099466   -0.1200
     12 C12        -9.3924   -0.2952   63.8531 C.3     1  ZINC001327099466   -0.1300
     13 C13        -9.3542   -2.0973   61.6437 C.2     1  ZINC001327099466    0.0700
     14 C14        -9.7755   -2.9912   60.7207 C.2     1  ZINC001327099466   -0.2700
     15 C15       -12.0247   -4.2888   57.0554 C.2     1  ZINC001327099466    0.5100
     16 O16       -12.2278   -5.4831   57.1281 O.2     1  ZINC001327099466   -0.5100
     17 N17       -12.5414   -3.5785   56.0332 N.am    1  ZINC001327099466   -0.5700
     18 C18       -13.3527   -4.2360   54.9995 C.3     1  ZINC001327099466    0.0400
     19 C19       -12.7638   -3.9035   53.6249 C.3     1  ZINC001327099466   -0.1300
     20 C20       -12.6618   -2.3841   53.4720 C.3     1  ZINC001327099466   -0.1200
     21 C21       -11.7274   -1.8231   54.5464 C.3     1  ZINC001327099466    0.0800
     22 H22       -10.7445   -2.2846   54.4506 H       1  ZINC001327099466    0.0700
     23 O23       -11.6080   -0.4085   54.3834 O.3     1  ZINC001327099466   -0.3500
     24 C24       -10.3188    0.0186   53.9389 C.3     1  ZINC001327099466    0.0600
     25 C25       -10.2292    0.2258   52.4178 C.3     1  ZINC001327099466   -0.1600
     26 C26       -10.6818    1.6742   52.6676 C.3     1  ZINC001327099466   -0.1400
     27 C27       -10.0892    1.5327   54.0795 C.3     1  ZINC001327099466   -0.1400
     28 C28       -12.3092   -2.1311   55.9345 C.3     1  ZINC001327099466    0.0900
     29 H29       -12.7278   -3.3205   59.3850 H       1  ZINC001327099466    0.4300
     30 H30        -9.7721    0.8794   62.0876 H       1  ZINC001327099466    0.1000
     31 H31       -12.2411    0.6651   62.1679 H       1  ZINC001327099466    0.0700
     32 H32       -12.1017   -0.4123   63.5780 H       1  ZINC001327099466    0.0700
     33 H33       -11.1309    2.4784   63.4437 H       1  ZINC001327099466    0.0700
     34 H34       -12.5969    1.9136   64.2805 H       1  ZINC001327099466    0.0700
     35 H35       -10.7094    2.1713   65.8679 H       1  ZINC001327099466    0.0700
     36 H36       -11.2073    0.4673   65.7386 H       1  ZINC001327099466    0.0700
     37 H37        -8.8776    1.7591   64.2483 H       1  ZINC001327099466    0.0700
     38 H38        -8.7382    0.6817   65.6583 H       1  ZINC001327099466    0.0700
     39 H39        -9.8485   -1.1317   64.3825 H       1  ZINC001327099466    0.0700
     40 H40        -8.3825   -0.5669   63.5457 H       1  ZINC001327099466    0.0700
     41 H41        -8.4379   -2.1548   62.2125 H       1  ZINC001327099466    0.1800
     42 H42        -9.2540   -3.8878   60.4195 H       1  ZINC001327099466    0.1700
     43 H43       -13.3357   -5.3149   55.1530 H       1  ZINC001327099466    0.1600
     44 H44       -14.3790   -3.8730   55.0548 H       1  ZINC001327099466    0.0700
     45 H45       -11.7712   -4.3453   53.5378 H       1  ZINC001327099466    0.0700
     46 H46       -13.4109   -4.3049   52.8452 H       1  ZINC001327099466    0.0900
     47 H47       -12.2661   -2.1442   52.4852 H       1  ZINC001327099466    0.0800
     48 H48       -13.6513   -1.9407   53.5838 H       1  ZINC001327099466    0.0800
     49 H49        -9.5087   -0.5856   54.3472 H       1  ZINC001327099466    0.0700
     50 H50        -9.2154    0.1467   52.0254 H       1  ZINC001327099466    0.0900
     51 H51       -10.9500   -0.3656   51.8533 H       1  ZINC001327099466    0.0700
     52 H52       -10.1640    2.4064   52.0481 H       1  ZINC001327099466    0.0700
     53 H53       -11.7644    1.8010   52.6590 H       1  ZINC001327099466    0.0800
     54 H54       -10.6971    1.9962   54.8566 H       1  ZINC001327099466    0.0800
     55 H55        -9.0372    1.8108   54.1415 H       1  ZINC001327099466    0.0900
     56 H56       -13.2494   -1.5951   56.0636 H       1  ZINC001327099466    0.0900
     57 H57       -11.6016   -1.8225   56.7040 H       1  ZINC001327099466    0.1000
@<TRIPOS>BOND
     1     1     2    2
     2     2     3   am
     3     2    15    1
     4     3     4    1
     5     3    29    1
     6     4    14    1
     7     4     5    2
     8     5     6    1
     9     6     7    1
    10     6    13    1
    11     7    12    1
    12     7     8    1
    13     7    30    1
    14     8     9    1
    15     8    31    1
    16     8    32    1
    17     9    10    1
    18     9    33    1
    19     9    34    1
    20    10    11    1
    21    10    35    1
    22    10    36    1
    23    11    12    1
    24    11    37    1
    25    11    38    1
    26    12    39    1
    27    12    40    1
    28    13    14    2
    29    13    41    1
    30    14    42    1
    31    15    16    2
    32    15    17   am
    33    17    28    1
    34    17    18    1
    35    18    19    1
    36    18    43    1
    37    18    44    1
    38    19    20    1
    39    19    45    1
    40    19    46    1
    41    20    21    1
    42    20    47    1
    43    20    48    1
    44    21    22    1
    45    21    23    1
    46    21    28    1
    47    23    24    1
    48    24    27    1
    49    24    25    1
    50    24    49    1
    51    25    26    1
    52    25    50    1
    53    25    51    1
    54    26    27    1
    55    26    52    1
    56    26    53    1
    57    27    54    1
    58    27    55    1
    59    28    56    1
    60    28    57    1
@<TRIPOS>SUBSTRUCTURE
     1 ZINC001327099466        1 TEMP              0 ****  ****    0 ROOT


##########                                Name:    ZINC000263872566
##########                DOCK_Rotatable_Bonds:                   9
##########                         Heavy_Atoms:                  26
##########                    Molecular_Weight:             362.469
##########                DOCK_Rotatable_Bonds:                   9
##########                       Formal_Charge:           0.0300001
##########                     HBond_Acceptors:                   6
##########                        HBond_Donors:                   2
##########                         Heavy_Atoms:                  26
##########                          Grid_Score:          -35.547241
##########                     Grid_vdw_energy:          -34.361721
##########                      Grid_es_energy:           -1.185522
##########           Internal_energy_repulsive:           24.568678

@<TRIPOS>MOLECULE
ZINC000263872566
 56 57 1 0 0
SMALL
USER_CHARGES


@<TRIPOS>ATOM
      1 C1        -16.0150   -1.4952   65.2442 C.3     1  ZINC000263872566   -0.1800
      2 C2        -15.9855   -0.0431   64.7631 C.3     1  ZINC000263872566    0.1400
      3 H3        -16.7518    0.1031   64.0019 H       1  ZINC000263872566    0.0700
      4 O4        -16.2376    0.8294   65.8664 O.3     1  ZINC000263872566   -0.5600
      5 C5        -14.6312    0.2649   64.1782 C.ar    1  ZINC000263872566   -0.0800
      6 C6        -13.5865    0.6276   65.0076 C.ar    1  ZINC000263872566   -0.0900
      7 C7        -12.3442    0.9103   64.4713 C.ar    1  ZINC000263872566   -0.1000
      8 C8        -12.1465    0.8297   63.1055 C.ar    1  ZINC000263872566   -0.1100
      9 C9        -10.7923    1.1382   62.5206 C.3     1  ZINC000263872566    0.1800
     10 N10       -10.6243    0.4038   61.2641 N.am    1  ZINC000263872566   -0.7400
     11 C11       -10.0823   -0.8302   61.2722 C.2     1  ZINC000263872566    0.7100
     12 O12        -9.7329   -1.3339   62.3222 O.2     1  ZINC000263872566   -0.5900
     13 N13        -9.9277   -1.5059   60.1163 N.am    1  ZINC000263872566   -0.6300
     14 C14        -9.3441   -2.8542   60.1096 C.3     1  ZINC000263872566    0.1100
     15 C15       -10.3007   -3.8019   59.3792 C.3     1  ZINC000263872566   -0.1200
     16 C16       -10.6042   -3.2415   57.9879 C.3     1  ZINC000263872566   -0.0800
     17 C17       -11.5180   -4.1884   57.2536 C.2     1  ZINC000263872566    0.4700
     18 O18       -11.6852   -5.3108   57.6689 O.2     1  ZINC000263872566   -0.5000
     19 O19       -12.1465   -3.7850   56.1382 O.3     1  ZINC000263872566   -0.3500
     20 C20       -13.5796   -4.0087   56.0716 C.3     1  ZINC000263872566    0.1200
     21 C21       -13.8512   -5.4523   55.6436 C.3     1  ZINC000263872566   -0.1800
     22 C22       -14.1992   -3.7596   57.4482 C.3     1  ZINC000263872566   -0.1400
     23 C23       -14.1986   -3.0497   55.0528 C.3     1  ZINC000263872566   -0.1800
     24 C24       -11.2850   -1.8776   58.1228 C.3     1  ZINC000263872566   -0.1300
     25 C25       -10.3451   -0.9104   58.8396 C.3     1  ZINC000263872566    0.1300
     26 C26       -13.1909    0.4656   62.2762 C.ar    1  ZINC000263872566   -0.1000
     27 C27       -14.4321    0.1793   62.8130 C.ar    1  ZINC000263872566   -0.1100
     28 H28       -15.2487   -1.6414   66.0053 H       1  ZINC000263872566    0.0700
     29 H29       -16.9946   -1.7180   65.6671 H       1  ZINC000263872566    0.0600
     30 H30       -15.8228   -2.1607   64.4026 H       1  ZINC000263872566    0.0700
     31 H31       -17.0936    0.6867   66.2931 H       1  ZINC000263872566    0.3800
     32 H32       -13.7409    0.6907   66.0746 H       1  ZINC000263872566    0.1300
     33 H33       -11.5281    1.1944   65.1191 H       1  ZINC000263872566    0.1300
     34 H34       -10.7144    2.2084   62.3292 H       1  ZINC000263872566    0.0800
     35 H35       -10.0158    0.8374   63.2238 H       1  ZINC000263872566    0.0800
     36 H36       -10.9030    0.8056   60.4264 H       1  ZINC000263872566    0.4000
     37 H37        -8.3843   -2.8343   59.5933 H       1  ZINC000263872566    0.0800
     38 H38        -9.2028   -3.1963   61.1349 H       1  ZINC000263872566    0.0800
     39 H39        -9.8371   -4.7837   59.2829 H       1  ZINC000263872566    0.0900
     40 H40       -11.2276   -3.8909   59.9458 H       1  ZINC000263872566    0.0800
     41 H41        -9.6740   -3.1294   57.4308 H       1  ZINC000263872566    0.1100
     42 H42       -13.4102   -6.1355   56.3695 H       1  ZINC000263872566    0.0600
     43 H43       -14.9271   -5.6201   55.5936 H       1  ZINC000263872566    0.0700
     44 H44       -13.4098   -5.6296   54.6629 H       1  ZINC000263872566    0.0800
     45 H45       -14.0057   -2.7313   57.7530 H       1  ZINC000263872566    0.0700
     46 H46       -15.2750   -3.9276   57.3981 H       1  ZINC000263872566    0.0800
     47 H47       -13.7582   -4.4429   58.1741 H       1  ZINC000263872566    0.0700
     48 H48       -13.7573   -3.2271   54.0720 H       1  ZINC000263872566    0.0800
     49 H49       -15.2744   -3.2175   55.0027 H       1  ZINC000263872566    0.0700
     50 H50       -14.0052   -2.0212   55.3576 H       1  ZINC000263872566    0.0600
     51 H51       -11.5218   -1.4896   57.1321 H       1  ZINC000263872566    0.0900
     52 H52       -12.2026   -1.9847   58.7011 H       1  ZINC000263872566    0.0700
     53 H53       -10.8620    0.0310   59.0257 H       1  ZINC000263872566    0.1000
     54 H54        -9.4651   -0.7308   58.2219 H       1  ZINC000263872566    0.0700
     55 H55       -13.0364    0.4023   61.2092 H       1  ZINC000263872566    0.1300
     56 H56       -15.2481   -0.1052   62.1651 H       1  ZINC000263872566    0.1300
@<TRIPOS>BOND
     1     1     2    1
     2     1    28    1
     3     1    29    1
     4     1    30    1
     5     2     3    1
     6     2     4    1
     7     2     5    1
     8     4    31    1
     9     5    27   ar
    10     5     6   ar
    11     6     7   ar
    12     6    32    1
    13     7     8   ar
    14     7    33    1
    15     8     9    1
    16     8    26   ar
    17     9    10    1
    18     9    34    1
    19     9    35    1
    20    10    11   am
    21    10    36    1
    22    11    12    2
    23    11    13   am
    24    13    25    1
    25    13    14    1
    26    14    15    1
    27    14    37    1
    28    14    38    1
    29    15    16    1
    30    15    39    1
    31    15    40    1
    32    16    17    1
    33    16    24    1
    34    16    41    1
    35    17    18    2
    36    17    19    1
    37    19    20    1
    38    20    21    1
    39    20    22    1
    40    20    23    1
    41    21    42    1
    42    21    43    1
    43    21    44    1
    44    22    45    1
    45    22    46    1
    46    22    47    1
    47    23    48    1
    48    23    49    1
    49    23    50    1
    50    24    25    1
    51    24    51    1
    52    24    52    1
    53    25    53    1
    54    25    54    1
    55    26    27   ar
    56    26    55    1
    57    27    56    1
@<TRIPOS>SUBSTRUCTURE
     1 ZINC000263872566        1 TEMP              0 ****  ****    0 ROOT


##########                                Name:    ZINC001124460178
##########                DOCK_Rotatable_Bonds:                  12
##########                         Heavy_Atoms:                  22
##########                    Molecular_Weight:             328.479
##########                DOCK_Rotatable_Bonds:                  12
##########                       Formal_Charge:          -0.0100003
##########                     HBond_Acceptors:                   7
##########                        HBond_Donors:                   2
##########                         Heavy_Atoms:                  22
##########                          Grid_Score:          -35.523830
##########                     Grid_vdw_energy:          -35.161316
##########                      Grid_es_energy:           -0.362513
##########           Internal_energy_repulsive:           28.286161

@<TRIPOS>MOLECULE
ZINC001124460178
 50 50 1 0 0
SMALL
USER_CHARGES


@<TRIPOS>ATOM
      1 C1          1.5818    1.2554   42.2383 C.3     1  ZINC001124460178   -0.0700
      2 C2          0.3161    0.5789   42.6980 C.2     1  ZINC001124460178    0.3100
      3 N3         -0.3038   -0.2745   41.9361 N.2     1  ZINC001124460178   -0.5000
      4 S4         -1.6582   -0.7883   42.8249 S.3     1  ZINC001124460178    0.1800
      5 C5         -1.3038    0.1941   44.1954 C.2     1  ZINC001124460178    0.3400
      6 N6         -2.0259    0.2913   45.3711 N.pl3   1  ZINC001124460178   -0.6600
      7 C7         -2.6856    1.5510   45.7236 C.3     1  ZINC001124460178    0.0900
      8 C8         -2.1980    2.0149   47.0976 C.3     1  ZINC001124460178    0.0800
      9 H9         -1.1186    1.8787   47.1652 H       1  ZINC001124460178    0.1200
     10 O10        -2.5157    3.3969   47.2741 O.3     1  ZINC001124460178   -0.5500
     11 C11        -2.8853    1.1903   48.1878 C.3     1  ZINC001124460178    0.0900
     12 N12        -2.6416    1.8078   49.4938 N.am    1  ZINC001124460178   -0.6100
     13 C13        -1.3175    2.3468   49.8137 C.3     1  ZINC001124460178    0.0800
     14 C14        -3.6356    1.8797   50.4011 C.2     1  ZINC001124460178    0.5100
     15 O15        -3.4344    2.3921   51.4818 O.2     1  ZINC001124460178   -0.5400
     16 C16        -4.9972    1.3234   50.0728 C.3     1  ZINC001124460178   -0.1400
     17 C17        -5.9588    1.6143   51.2269 C.3     1  ZINC001124460178   -0.1100
     18 C18        -7.2838    0.8895   50.9816 C.3     1  ZINC001124460178   -0.1200
     19 C19        -8.2791    1.2600   52.0829 C.3     1  ZINC001124460178   -0.1200
     20 C20        -8.5505    2.7651   52.0397 C.3     1  ZINC001124460178   -0.1000
     21 C21        -9.1655    3.1339   50.6882 C.3     1  ZINC001124460178   -0.1500
     22 C22        -9.5211    3.1407   53.1612 C.3     1  ZINC001124460178   -0.1500
     23 N23        -0.1933    0.8277   43.8821 N.2     1  ZINC001124460178   -0.5800
     24 H24         2.4421    0.6517   42.5274 H       1  ZINC001124460178    0.0900
     25 H25         1.5624    1.3643   41.1539 H       1  ZINC001124460178    0.0900
     26 H26         1.6565    2.2395   42.7011 H       1  ZINC001124460178    0.0900
     27 H27        -2.0954   -0.4746   45.9623 H       1  ZINC001124460178    0.4200
     28 H28        -2.4448    2.3084   44.9777 H       1  ZINC001124460178    0.0800
     29 H29        -3.7648    1.4001   45.7529 H       1  ZINC001124460178    0.0900
     30 H30        -3.4306    3.6212   47.0554 H       1  ZINC001124460178    0.3800
     31 H31        -3.9578    1.1568   47.9962 H       1  ZINC001124460178    0.0900
     32 H32        -2.4838    0.1770   48.1844 H       1  ZINC001124460178    0.1000
     33 H33        -1.2693    3.3936   49.5136 H       1  ZINC001124460178    0.0600
     34 H34        -1.1426    2.2679   50.8867 H       1  ZINC001124460178    0.0800
     35 H35        -0.5556    1.7800   49.2787 H       1  ZINC001124460178    0.0800
     36 H36        -5.3709    1.7911   49.1619 H       1  ZINC001124460178    0.0900
     37 H37        -4.9234    0.2461   49.9241 H       1  ZINC001124460178    0.0900
     38 H38        -5.5208    1.2643   52.1617 H       1  ZINC001124460178    0.0700
     39 H39        -6.1378    2.6876   51.2889 H       1  ZINC001124460178    0.0700
     40 H40        -7.6863    1.1862   50.0131 H       1  ZINC001124460178    0.0600
     41 H41        -7.1159   -0.1874   50.9909 H       1  ZINC001124460178    0.0600
     42 H42        -9.2118    0.7180   51.9271 H       1  ZINC001124460178    0.0600
     43 H43        -7.8621    0.9938   53.0542 H       1  ZINC001124460178    0.0600
     44 H44        -7.6142    3.3071   52.1728 H       1  ZINC001124460178    0.0700
     45 H45       -10.1018    2.5919   50.5550 H       1  ZINC001124460178    0.0500
     46 H46        -9.3588    4.2062   50.6574 H       1  ZINC001124460178    0.0500
     47 H47        -8.4740    2.8664   49.8892 H       1  ZINC001124460178    0.0500
     48 H48        -9.0829    2.8780   54.1240 H       1  ZINC001124460178    0.0600
     49 H49        -9.7144    4.2130   53.1305 H       1  ZINC001124460178    0.0500
     50 H50       -10.4573    2.5988   53.0281 H       1  ZINC001124460178    0.0500
@<TRIPOS>BOND
     1     1     2    1
     2     1    24    1
     3     1    25    1
     4     1    26    1
     5     2    23    1
     6     2     3    2
     7     3     4    1
     8     4     5    1
     9     5     6    1
    10     5    23    2
    11     6     7    1
    12     6    27    1
    13     7     8    1
    14     7    28    1
    15     7    29    1
    16     8     9    1
    17     8    10    1
    18     8    11    1
    19    10    30    1
    20    11    12    1
    21    11    31    1
    22    11    32    1
    23    12    13    1
    24    12    14   am
    25    13    33    1
    26    13    34    1
    27    13    35    1
    28    14    15    2
    29    14    16    1
    30    16    17    1
    31    16    36    1
    32    16    37    1
    33    17    18    1
    34    17    38    1
    35    17    39    1
    36    18    19    1
    37    18    40    1
    38    18    41    1
    39    19    20    1
    40    19    42    1
    41    19    43    1
    42    20    21    1
    43    20    22    1
    44    20    44    1
    45    21    45    1
    46    21    46    1
    47    21    47    1
    48    22    48    1
    49    22    49    1
    50    22    50    1
@<TRIPOS>SUBSTRUCTURE
     1 ZINC001124460178        1 TEMP              0 ****  ****    0 ROOT


##########                                Name:    ZINC000502834785
##########                DOCK_Rotatable_Bonds:                   9
##########                         Heavy_Atoms:                  26
##########                    Molecular_Weight:             356.468
##########                DOCK_Rotatable_Bonds:                   9
##########                       Formal_Charge:           0.0199998
##########                     HBond_Acceptors:                   6
##########                        HBond_Donors:                   2
##########                         Heavy_Atoms:                  26
##########                          Grid_Score:          -35.520298
##########                     Grid_vdw_energy:          -34.123623
##########                      Grid_es_energy:           -1.396677
##########           Internal_energy_repulsive:           32.190300

@<TRIPOS>MOLECULE
ZINC000502834785
 54 56 1 0 0
SMALL
USER_CHARGES


@<TRIPOS>ATOM
      1 C1        -13.3140    1.4845   64.5347 C.3     1  ZINC000502834785   -0.1800
      2 C2        -11.7997    1.6306   64.3719 C.3     1  ZINC000502834785    0.0800
      3 C3        -11.1734    1.9851   65.7222 C.3     1  ZINC000502834785   -0.1500
      4 O4        -11.2502    0.3984   63.9008 O.3     1  ZINC000502834785   -0.3800
      5 C5        -10.0803    0.5541   63.0951 C.3     1  ZINC000502834785    0.1000
      6 C6        -10.0821   -0.4823   62.0012 C.ar    1  ZINC000502834785   -0.0800
      7 C7        -10.8698   -0.3020   60.8796 C.ar    1  ZINC000502834785   -0.1000
      8 C8        -10.8714   -1.2527   59.8761 C.ar    1  ZINC000502834785   -0.1000
      9 C9        -10.0851   -2.3835   59.9940 C.ar    1  ZINC000502834785   -0.1000
     10 C10       -10.0874   -3.4202   58.9001 C.3     1  ZINC000502834785    0.1600
     11 N11       -11.4588   -3.6313   58.4302 N.am    1  ZINC000502834785   -0.7300
     12 C12       -11.7300   -4.6338   57.5713 C.2     1  ZINC000502834785    0.5100
     13 O13       -10.8390   -5.3621   57.1884 O.2     1  ZINC000502834785   -0.5200
     14 C14       -13.1405   -4.8498   57.0865 C.3     1  ZINC000502834785    0.0300
     15 N15       -13.9064   -3.6055   57.2385 N.3     1  ZINC000502834785   -0.5000
     16 C16       -15.3581   -3.8801   57.2934 C.3     1  ZINC000502834785    0.0500
     17 C17       -16.0179   -2.6603   56.6034 C.3     1  ZINC000502834785   -0.1300
     18 C18       -15.0059   -2.3576   55.4673 C.3     1  ZINC000502834785   -0.1300
     19 C19       -13.6450   -2.6838   56.1178 C.3     1  ZINC000502834785    0.1500
     20 H20       -13.1831   -1.7692   56.4897 H       1  ZINC000502834785    0.1100
     21 C21       -12.7392   -3.3418   55.1091 C.2     1  ZINC000502834785    0.0600
     22 N22       -11.4388   -3.2117   55.0458 N.2     1  ZINC000502834785   -0.2900
     23 N23       -10.9737   -3.9816   53.9719 N.pl3   1  ZINC000502834785   -0.4800
     24 C24       -12.0389   -4.5764   53.3952 C.2     1  ZINC000502834785    0.0600
     25 C25       -13.1427   -4.2019   54.0825 C.2     1  ZINC000502834785   -0.2600
     26 C26        -9.2965   -2.5632   61.1149 C.ar    1  ZINC000502834785   -0.1000
     27 C27        -9.2919   -1.6106   62.1167 C.ar    1  ZINC000502834785   -0.1000
     28 H28       -13.7601    1.2320   63.5728 H       1  ZINC000502834785    0.0600
     29 H29       -13.5275    0.6932   65.2532 H       1  ZINC000502834785    0.0600
     30 H30       -13.7331    2.4244   64.8941 H       1  ZINC000502834785    0.0700
     31 H31       -11.5861    2.4220   63.6535 H       1  ZINC000502834785    0.0600
     32 H32       -11.3870    1.1937   66.4406 H       1  ZINC000502834785    0.0600
     33 H33       -10.0947    2.0892   65.6062 H       1  ZINC000502834785    0.0600
     34 H34       -11.5925    2.9249   66.0815 H       1  ZINC000502834785    0.0700
     35 H35       -10.0741    1.5500   62.6521 H       1  ZINC000502834785    0.0600
     36 H36        -9.1927    0.4267   63.7149 H       1  ZINC000502834785    0.0600
     37 H37       -11.4841    0.5815   60.7874 H       1  ZINC000502834785    0.1300
     38 H38       -11.4873   -1.1122   59.0001 H       1  ZINC000502834785    0.1300
     39 H39        -9.4685   -3.0756   58.0717 H       1  ZINC000502834785    0.0800
     40 H40        -9.6876   -4.3575   59.2871 H       1  ZINC000502834785    0.0800
     41 H41       -12.1717   -3.0495   58.7374 H       1  ZINC000502834785    0.4000
     42 H42       -13.1232   -5.1397   56.0359 H       1  ZINC000502834785    0.1000
     43 H43       -13.6096   -5.6392   57.6736 H       1  ZINC000502834785    0.0800
     44 H44       -15.5918   -4.7957   56.7501 H       1  ZINC000502834785    0.0400
     45 H45       -15.6910   -3.9566   58.3285 H       1  ZINC000502834785    0.1000
     46 H46       -16.9945   -2.9228   56.1967 H       1  ZINC000502834785    0.0800
     47 H47       -16.0965   -1.8181   57.2909 H       1  ZINC000502834785    0.0800
     48 H48       -15.1868   -3.0032   54.6078 H       1  ZINC000502834785    0.0800
     49 H49       -15.0532   -1.3076   55.1786 H       1  ZINC000502834785    0.0800
     50 H50       -10.0492   -4.0715   53.6923 H       1  ZINC000502834785    0.4400
     51 H51       -12.0143   -5.2365   52.5408 H       1  ZINC000502834785    0.1800
     52 H52       -14.1568   -4.5079   53.8717 H       1  ZINC000502834785    0.1500
     53 H53        -8.6819   -3.4465   61.2069 H       1  ZINC000502834785    0.1300
     54 H54        -8.6757   -1.7510   62.9925 H       1  ZINC000502834785    0.1200
@<TRIPOS>BOND
     1     1     2    1
     2     1    28    1
     3     1    29    1
     4     1    30    1
     5     2     3    1
     6     2     4    1
     7     2    31    1
     8     3    32    1
     9     3    33    1
    10     3    34    1
    11     4     5    1
    12     5     6    1
    13     5    35    1
    14     5    36    1
    15     6    27   ar
    16     6     7   ar
    17     7     8   ar
    18     7    37    1
    19     8     9   ar
    20     8    38    1
    21     9    10    1
    22     9    26   ar
    23    10    11    1
    24    10    39    1
    25    10    40    1
    26    11    12   am
    27    11    41    1
    28    12    13    2
    29    12    14    1
    30    14    15    1
    31    14    42    1
    32    14    43    1
    33    15    19    1
    34    15    16    1
    35    16    17    1
    36    16    44    1
    37    16    45    1
    38    17    18    1
    39    17    46    1
    40    17    47    1
    41    18    19    1
    42    18    48    1
    43    18    49    1
    44    19    20    1
    45    19    21    1
    46    21    25    1
    47    21    22    2
    48    22    23    1
    49    23    24    1
    50    23    50    1
    51    24    25    2
    52    24    51    1
    53    25    52    1
    54    26    27   ar
    55    26    53    1
    56    27    54    1
@<TRIPOS>SUBSTRUCTURE
     1 ZINC000502834785        1 TEMP              0 ****  ****    0 ROOT


##########                                Name:    ZINC000555499135
##########                DOCK_Rotatable_Bonds:                   8
##########                         Heavy_Atoms:                  26
##########                    Molecular_Weight:             377.554
##########                DOCK_Rotatable_Bonds:                   8
##########                       Formal_Charge:           0.0399999
##########                     HBond_Acceptors:                   7
##########                        HBond_Donors:                   0
##########                         Heavy_Atoms:                  26
##########                          Grid_Score:          -35.466244
##########                     Grid_vdw_energy:          -34.546341
##########                      Grid_es_energy:           -0.919905
##########           Internal_energy_repulsive:           11.630654

@<TRIPOS>MOLECULE
ZINC000555499135
 57 59 1 0 0
SMALL
USER_CHARGES


@<TRIPOS>ATOM
      1 C1         -8.8317    1.2196   64.9475 C.3     1  ZINC000555499135   -0.1500
      2 C2         -9.9717    1.1776   63.9279 C.3     1  ZINC000555499135   -0.0500
      3 C3         -9.7529    0.0294   62.9767 C.2     1  ZINC000555499135   -0.2100
      4 C4         -9.1699   -1.1362   63.2723 C.2     1  ZINC000555499135    0.0300
      5 N5         -9.0968   -1.9818   62.2642 N.2     1  ZINC000555499135   -0.4500
      6 C6         -9.5857   -1.5943   61.1347 C.2     1  ZINC000555499135    0.0400
      7 C7         -9.5956   -2.4163   59.8717 C.3     1  ZINC000555499135    0.1500
      8 N8        -10.5134   -1.8084   58.8990 N.3     1  ZINC000555499135   -0.4500
      9 C9         -9.8025   -0.8717   58.0186 C.3     1  ZINC000555499135    0.0100
     10 C10       -11.1714   -2.7804   58.1622 C.2     1  ZINC000555499135    0.3500
     11 N11       -10.6868   -3.9439   57.7975 N.2     1  ZINC000555499135   -0.3100
     12 N12       -11.5695   -4.5934   57.1259 N.2     1  ZINC000555499135   -0.2900
     13 C13       -12.6606   -3.8887   57.0233 C.2     1  ZINC000555499135    0.2100
     14 C14       -13.9252   -4.2984   56.3135 C.3     1  ZINC000555499135   -0.0300
     15 C15       -13.9312   -3.7093   54.9015 C.3     1  ZINC000555499135   -0.0900
     16 C16       -13.0693   -4.5776   53.9829 C.3     1  ZINC000555499135   -0.1500
     17 C17       -15.3656   -3.6726   54.3703 C.3     1  ZINC000555499135   -0.1500
     18 N18       -12.4476   -2.7107   57.6842 N.pl3   1  ZINC000555499135   -0.4600
     19 C19       -13.3907   -1.6005   57.8395 C.3     1  ZINC000555499135    0.1100
     20 C20       -14.2508   -1.8322   59.0834 C.3     1  ZINC000555499135    0.0700
     21 H21       -14.5925   -2.8671   59.1015 H       1  ZINC000555499135    0.0700
     22 C22       -15.4613   -0.8956   59.0487 C.3     1  ZINC000555499135   -0.1500
     23 C23       -16.2849   -1.0907   60.3255 C.3     1  ZINC000555499135   -0.1200
     24 C24       -15.3887   -0.8376   61.5417 C.3     1  ZINC000555499135   -0.1600
     25 C25       -14.1809   -1.7765   61.4800 C.3     1  ZINC000555499135    0.0600
     26 O26       -13.4768   -1.5653   60.2546 O.3     1  ZINC000555499135   -0.3700
     27 S27       -10.2275   -0.0163   61.2805 S.3     1  ZINC000555499135    0.1200
     28 H28        -8.8096    0.2841   65.5064 H       1  ZINC000555499135    0.0600
     29 H29        -7.8836    1.3546   64.4270 H       1  ZINC000555499135    0.0600
     30 H30        -8.9900    2.0501   65.6355 H       1  ZINC000555499135    0.0700
     31 H31       -10.9198    1.0427   64.4483 H       1  ZINC000555499135    0.0900
     32 H32        -9.9939    2.1132   63.3691 H       1  ZINC000555499135    0.0800
     33 H33        -8.7899   -1.3663   64.2566 H       1  ZINC000555499135    0.1800
     34 H34        -8.5904   -2.4490   59.4515 H       1  ZINC000555499135    0.0800
     35 H35        -9.9271   -3.4293   60.1000 H       1  ZINC000555499135    0.1200
     36 H36        -9.1037   -1.4234   57.3897 H       1  ZINC000555499135    0.0500
     37 H37       -10.5217   -0.3475   57.3893 H       1  ZINC000555499135    0.0800
     38 H38        -9.2546   -0.1492   58.6235 H       1  ZINC000555499135    0.0900
     39 H39       -13.9722   -5.3858   56.2537 H       1  ZINC000555499135    0.1000
     40 H40       -14.7884   -3.9272   56.8658 H       1  ZINC000555499135    0.1000
     41 H41       -13.5277   -2.6971   54.9285 H       1  ZINC000555499135    0.0800
     42 H42       -12.0571   -4.6364   54.3830 H       1  ZINC000555499135    0.0500
     43 H43       -13.4956   -5.5791   53.9244 H       1  ZINC000555499135    0.0600
     44 H44       -13.0411   -4.1360   52.9867 H       1  ZINC000555499135    0.0600
     45 H45       -15.9797   -3.0539   55.0248 H       1  ZINC000555499135    0.0600
     46 H46       -15.3700   -3.2529   53.3644 H       1  ZINC000555499135    0.0600
     47 H47       -15.7691   -4.6849   54.3434 H       1  ZINC000555499135    0.0600
     48 H48       -12.8384   -0.6671   57.9484 H       1  ZINC000555499135    0.1100
     49 H49       -14.0319   -1.5428   56.9599 H       1  ZINC000555499135    0.1200
     50 H50       -15.1205    0.1381   58.9896 H       1  ZINC000555499135    0.0800
     51 H51       -16.0766   -1.1275   58.1794 H       1  ZINC000555499135    0.0800
     52 H52       -17.1175   -0.3873   60.3335 H       1  ZINC000555499135    0.0700
     53 H53       -16.6673   -2.1109   60.3603 H       1  ZINC000555499135    0.0600
     54 H54       -15.0463    0.1971   61.5328 H       1  ZINC000555499135    0.0700
     55 H55       -15.9518   -1.0283   62.4552 H       1  ZINC000555499135    0.0800
     56 H56       -13.5178   -1.5713   62.3203 H       1  ZINC000555499135    0.1000
     57 H57       -14.5216   -2.8107   61.5296 H       1  ZINC000555499135    0.0500
@<TRIPOS>BOND
     1     1     2    1
     2     1    28    1
     3     1    29    1
     4     1    30    1
     5     2     3    1
     6     2    31    1
     7     2    32    1
     8     3    27    1
     9     3     4    2
    10     4     5    1
    11     4    33    1
    12     5     6    2
    13     6     7    1
    14     6    27    1
    15     7     8    1
    16     7    34    1
    17     7    35    1
    18     8     9    1
    19     8    10    1
    20     9    36    1
    21     9    37    1
    22     9    38    1
    23    10    18    1
    24    10    11    2
    25    11    12    1
    26    12    13    2
    27    13    14    1
    28    13    18    1
    29    14    15    1
    30    14    39    1
    31    14    40    1
    32    15    16    1
    33    15    17    1
    34    15    41    1
    35    16    42    1
    36    16    43    1
    37    16    44    1
    38    17    45    1
    39    17    46    1
    40    17    47    1
    41    18    19    1
    42    19    20    1
    43    19    48    1
    44    19    49    1
    45    20    21    1
    46    20    26    1
    47    20    22    1
    48    22    23    1
    49    22    50    1
    50    22    51    1
    51    23    24    1
    52    23    52    1
    53    23    53    1
    54    24    25    1
    55    24    54    1
    56    24    55    1
    57    25    26    1
    58    25    56    1
    59    25    57    1
@<TRIPOS>SUBSTRUCTURE
     1 ZINC000555499135        1 TEMP              0 ****  ****    0 ROOT


##########                                Name:    ZINC000269356812
##########                DOCK_Rotatable_Bonds:                  10
##########                         Heavy_Atoms:                  25
##########                    Molecular_Weight:             387.431
##########                DOCK_Rotatable_Bonds:                  10
##########                       Formal_Charge:          0.00999978
##########                     HBond_Acceptors:                  10
##########                        HBond_Donors:                   3
##########                         Heavy_Atoms:                  25
##########                          Grid_Score:          -35.445999
##########                     Grid_vdw_energy:          -34.854805
##########                      Grid_es_energy:           -0.591194
##########           Internal_energy_repulsive:            7.193976

@<TRIPOS>MOLECULE
ZINC000269356812
 40 41 1 0 0
SMALL
USER_CHARGES


@<TRIPOS>ATOM
      1 C1        -13.8522   -5.7971   55.8887 C.3     1  ZINC000269356812   -0.1400
      2 C2        -13.0484   -4.5342   56.2050 C.3     1  ZINC000269356812    0.2000
      3 O3        -13.9080   -3.5583   56.7971 O.3     1  ZINC000269356812   -0.5400
      4 C4        -11.9203   -4.8785   57.1796 C.3     1  ZINC000269356812    0.0900
      5 N5        -11.9111   -3.9092   58.2780 N.am    1  ZINC000269356812   -0.6900
      6 C6        -10.8114   -3.7701   59.0448 C.2     1  ZINC000269356812    0.5100
      7 O7         -9.8294   -4.4489   58.8262 O.2     1  ZINC000269356812   -0.5100
      8 C8        -10.8014   -2.7808   60.1632 C.2     1  ZINC000269356812    0.5100
      9 O9        -11.8316   -2.5152   60.7479 O.2     1  ZINC000269356812   -0.4900
     10 N10        -9.6486   -2.1826   60.5235 N.am    1  ZINC000269356812   -0.6400
     11 C11        -9.6392   -1.2556   61.5715 C.ar    1  ZINC000269356812    0.0900
     12 C12       -10.1489    0.0288   61.3824 C.ar    1  ZINC000269356812   -0.0600
     13 C13       -10.1199    0.9118   62.4455 C.ar    1  ZINC000269356812   -0.1200
     14 C14        -9.5867    0.4932   63.6608 C.ar    1  ZINC000269356812    0.1000
     15 S15        -9.5444    1.6087   65.0240 S.3     1  ZINC000269356812   -0.0600
     16 C16       -11.2667    2.1637   65.1508 C.3     1  ZINC000269356812    0.2900
     17 F17       -12.1084    1.0512   65.2565 F       1  ZINC000269356812   -0.1700
     18 F18       -11.4147    2.9698   66.2847 F       1  ZINC000269356812   -0.1700
     19 N19        -9.1113   -0.7347   63.8045 N.ar    1  ZINC000269356812   -0.4600
     20 C20        -9.1280   -1.6048   62.8132 C.ar    1  ZINC000269356812    0.1100
     21 C21       -12.4613   -3.9807   54.9323 C.2     1  ZINC000269356812   -0.2300
     22 C22       -11.3497   -3.2476   54.8535 C.2     1  ZINC000269356812   -0.1100
     23 C23       -11.0029   -2.8497   53.5738 C.2     1  ZINC000269356812   -0.1400
     24 C24       -11.8327   -3.2599   52.6134 C.2     1  ZINC000269356812   -0.2000
     25 S25       -13.1327   -4.2089   53.3228 S.3     1  ZINC000269356812    0.1100
     26 H26       -14.6560   -5.5518   55.1945 H       1  ZINC000269356812    0.0800
     27 H27       -13.1966   -6.5416   55.4371 H       1  ZINC000269356812    0.0800
     28 H28       -14.2770   -6.1976   56.8093 H       1  ZINC000269356812    0.0700
     29 H29       -14.6141   -3.2497   56.2128 H       1  ZINC000269356812    0.3800
     30 H30       -12.0790   -5.8798   57.5800 H       1  ZINC000269356812    0.0900
     31 H31       -10.9648   -4.8438   56.6562 H       1  ZINC000269356812    0.0900
     32 H32       -12.6964   -3.3674   58.4534 H       1  ZINC000269356812    0.4200
     33 H33        -8.8254   -2.3948   60.0561 H       1  ZINC000269356812    0.4300
     34 H34       -10.5564    0.3265   60.4276 H       1  ZINC000269356812    0.1600
     35 H35       -10.5058    1.9144   62.3341 H       1  ZINC000269356812    0.1500
     36 H36       -11.5305    2.7358   64.2613 H       1  ZINC000269356812    0.1500
     37 H37        -8.7313   -2.5974   62.9674 H       1  ZINC000269356812    0.1700
     38 H38       -10.7649   -2.9838   55.7223 H       1  ZINC000269356812    0.1500
     39 H39       -10.1269   -2.2523   53.3686 H       1  ZINC000269356812    0.1400
     40 H40       -11.7214   -3.0452   51.5608 H       1  ZINC000269356812    0.1700
@<TRIPOS>BOND
     1     1     2    1
     2     1    26    1
     3     1    27    1
     4     1    28    1
     5     2     3    1
     6     2     4    1
     7     2    21    1
     8     3    29    1
     9     4     5    1
    10     4    30    1
    11     4    31    1
    12     5     6   am
    13     5    32    1
    14     6     7    2
    15     6     8    1
    16     8     9    2
    17     8    10   am
    18    10    11    1
    19    10    33    1
    20    11    20   ar
    21    11    12   ar
    22    12    13   ar
    23    12    34    1
    24    13    14   ar
    25    13    35    1
    26    14    15    1
    27    14    19   ar
    28    15    16    1
    29    16    17    1
    30    16    18    1
    31    16    36    1
    32    19    20   ar
    33    20    37    1
    34    21    25    1
    35    21    22    2
    36    22    23    1
    37    22    38    1
    38    23    24    2
    39    23    39    1
    40    24    25    1
    41    24    40    1
@<TRIPOS>SUBSTRUCTURE
     1 ZINC000269356812        1 TEMP              0 ****  ****    0 ROOT


##########                                Name:    ZINC000790205345
##########                DOCK_Rotatable_Bonds:                   7
##########                         Heavy_Atoms:                  28
##########                    Molecular_Weight:             382.459
##########                DOCK_Rotatable_Bonds:                   7
##########                       Formal_Charge:          -0.0299997
##########                     HBond_Acceptors:                   6
##########                        HBond_Donors:                   0
##########                         Heavy_Atoms:                  28
##########                          Grid_Score:          -35.442524
##########                     Grid_vdw_energy:          -34.666397
##########                      Grid_es_energy:           -0.776128
##########           Internal_energy_repulsive:           49.191547

@<TRIPOS>MOLECULE
ZINC000790205345
 54 56 1 0 0
SMALL
USER_CHARGES


@<TRIPOS>ATOM
      1 C1        -10.1744    0.2637   62.5629 C.3     1  ZINC000790205345   -0.1100
      2 C2        -10.1384   -0.7986   61.4944 C.ar    1  ZINC000790205345   -0.1300
      3 C3         -9.3474   -1.9197   61.6626 C.ar    1  ZINC000790205345   -0.0800
      4 C4         -9.3129   -2.8953   60.6848 C.ar    1  ZINC000790205345   -0.2100
      5 C5        -10.0730   -2.7491   59.5338 C.ar    1  ZINC000790205345    0.1300
      6 O6        -10.0414   -3.7075   58.5707 O.3     1  ZINC000790205345   -0.2900
      7 C7        -11.2892   -4.2992   58.2032 C.3     1  ZINC000790205345    0.0400
      8 C8        -11.6421   -3.8935   56.7954 C.2     1  ZINC000790205345    0.5200
      9 O9        -10.8343   -3.2964   56.1157 O.2     1  ZINC000790205345   -0.5100
     10 N10       -12.8555   -4.1940   56.2916 N.am    1  ZINC000790205345   -0.6100
     11 C11       -13.1978   -3.8012   54.9223 C.3     1  ZINC000790205345    0.0700
     12 C12       -13.8320   -4.9136   57.1130 C.3     1  ZINC000790205345    0.1800
     13 H13       -13.3274   -5.3595   57.9702 H       1  ZINC000790205345    0.1200
     14 C14       -14.4881   -6.0149   56.2778 C.3     1  ZINC000790205345   -0.1600
     15 C15       -14.8878   -3.9527   57.5956 C.ar    1  ZINC000790205345   -0.0700
     16 C16       -15.9380   -3.6067   56.7655 C.ar    1  ZINC000790205345   -0.1300
     17 C17       -16.9087   -2.7248   57.2046 C.ar    1  ZINC000790205345   -0.0900
     18 C18       -16.8319   -2.1874   58.4743 C.ar    1  ZINC000790205345   -0.1500
     19 C19       -15.7785   -2.5332   59.3107 C.ar    1  ZINC000790205345    0.1800
     20 N20       -15.6980   -1.9905   60.5982 N.am    1  ZINC000790205345   -0.5700
     21 C21       -14.6325   -2.2610   61.5755 C.3     1  ZINC000790205345    0.0600
     22 C22       -15.0355   -1.4178   62.8006 C.3     1  ZINC000790205345    0.0400
     23 O23       -16.2729   -0.7674   62.3896 O.3     1  ZINC000790205345   -0.3200
     24 C24       -16.5760   -1.1350   61.1396 C.2     1  ZINC000790205345    0.6400
     25 O25       -17.5619   -0.7362   60.5517 O.2     1  ZINC000790205345   -0.5000
     26 C26       -14.8084   -3.4229   58.8688 C.ar    1  ZINC000790205345   -0.1400
     27 C27       -10.8663   -1.6228   59.3674 C.ar    1  ZINC000790205345   -0.1500
     28 C28       -10.9013   -0.6530   60.3502 C.ar    1  ZINC000790205345   -0.0500
     29 C29       -11.7629    0.5703   60.1706 C.3     1  ZINC000790205345   -0.1200
     30 H30       -10.9634    0.0325   63.2785 H       1  ZINC000790205345    0.0700
     31 H31        -9.2141    0.2938   63.0777 H       1  ZINC000790205345    0.0600
     32 H32       -10.3718    1.2329   62.1049 H       1  ZINC000790205345    0.0700
     33 H33        -8.7553   -2.0330   62.5588 H       1  ZINC000790205345    0.1300
     34 H34        -8.6944   -3.7708   60.8164 H       1  ZINC000790205345    0.1300
     35 H35       -11.2069   -5.3847   58.2587 H       1  ZINC000790205345    0.1000
     36 H36       -12.0678   -3.9584   58.8856 H       1  ZINC000790205345    0.0900
     37 H37       -12.8262   -4.5520   54.2252 H       1  ZINC000790205345    0.0600
     38 H38       -14.2808   -3.7215   54.8273 H       1  ZINC000790205345    0.0800
     39 H39       -12.7414   -2.8376   54.6959 H       1  ZINC000790205345    0.0700
     40 H40       -14.9926   -5.5691   55.4207 H       1  ZINC000790205345    0.0600
     41 H41       -13.7244   -6.7100   55.9289 H       1  ZINC000790205345    0.0700
     42 H42       -15.2146   -6.5504   56.8891 H       1  ZINC000790205345    0.0800
     43 H43       -16.0003   -4.0257   55.7721 H       1  ZINC000790205345    0.1300
     44 H44       -17.7274   -2.4559   56.5536 H       1  ZINC000790205345    0.1300
     45 H45       -17.5900   -1.4984   58.8164 H       1  ZINC000790205345    0.1300
     46 H46       -14.6075   -3.3202   61.8312 H       1  ZINC000790205345    0.1000
     47 H47       -13.6666   -1.9366   61.1884 H       1  ZINC000790205345    0.1000
     48 H48       -15.2096   -2.0587   63.6650 H       1  ZINC000790205345    0.1100
     49 H49       -14.2690   -0.6754   63.0224 H       1  ZINC000790205345    0.1100
     50 H50       -13.9881   -3.6941   59.5169 H       1  ZINC000790205345    0.1600
     51 H51       -11.4589   -1.5065   58.4721 H       1  ZINC000790205345    0.1300
     52 H52       -12.7552    0.3790   60.5792 H       1  ZINC000790205345    0.0700
     53 H53       -11.3110    1.4131   60.6935 H       1  ZINC000790205345    0.0700
     54 H54       -11.8460    0.8034   59.1090 H       1  ZINC000790205345    0.0700
@<TRIPOS>BOND
     1     1     2    1
     2     1    30    1
     3     1    31    1
     4     1    32    1
     5     2    28   ar
     6     2     3   ar
     7     3     4   ar
     8     3    33    1
     9     4     5   ar
    10     4    34    1
    11     5     6    1
    12     5    27   ar
    13     6     7    1
    14     7     8    1
    15     7    35    1
    16     7    36    1
    17     8     9    2
    18     8    10   am
    19    10    11    1
    20    10    12    1
    21    11    37    1
    22    11    38    1
    23    11    39    1
    24    12    13    1
    25    12    14    1
    26    12    15    1
    27    14    40    1
    28    14    41    1
    29    14    42    1
    30    15    26   ar
    31    15    16   ar
    32    16    17   ar
    33    16    43    1
    34    17    18   ar
    35    17    44    1
    36    18    19   ar
    37    18    45    1
    38    19    20    1
    39    19    26   ar
    40    20    24   am
    41    20    21    1
    42    21    22    1
    43    21    46    1
    44    21    47    1
    45    22    23    1
    46    22    48    1
    47    22    49    1
    48    23    24    1
    49    24    25    2
    50    26    50    1
    51    27    28   ar
    52    27    51    1
    53    28    29    1
    54    29    52    1
    55    29    53    1
    56    29    54    1
@<TRIPOS>SUBSTRUCTURE
     1 ZINC000790205345        1 TEMP              0 ****  ****    0 ROOT


##########                                Name:    ZINC000507831344
##########                DOCK_Rotatable_Bonds:                   6
##########                         Heavy_Atoms:                  31
##########                    Molecular_Weight:              422.53
##########                DOCK_Rotatable_Bonds:                   6
##########                       Formal_Charge:          -0.0200002
##########                     HBond_Acceptors:                   8
##########                        HBond_Donors:                   2
##########                         Heavy_Atoms:                  31
##########                          Grid_Score:          -35.432503
##########                     Grid_vdw_energy:          -34.058002
##########                      Grid_es_energy:           -1.374498
##########           Internal_energy_repulsive:           22.219610

@<TRIPOS>MOLECULE
ZINC000507831344
 61 64 1 0 0
SMALL
USER_CHARGES


@<TRIPOS>ATOM
      1 C1         -3.3416    2.6955   56.8253 C.3     1  ZINC000507831344   -0.1000
      2 C2         -4.7802    2.8113   56.3913 C.ar    1  ZINC000507831344   -0.0800
      3 C3         -5.7947    2.3221   57.1931 C.ar    1  ZINC000507831344   -0.0800
      4 C4         -7.1108    2.4513   56.7518 C.ar    1  ZINC000507831344    0.0900
      5 N5         -8.1712    1.9702   57.5323 N.am    1  ZINC000507831344   -0.6700
      6 C6         -8.9198    0.9401   57.0907 C.2     1  ZINC000507831344    0.5100
      7 O7         -8.6759    0.4293   56.0180 O.2     1  ZINC000507831344   -0.5100
      8 C8        -10.0598    0.4229   57.9298 C.3     1  ZINC000507831344   -0.1400
      9 C9         -9.8189   -1.0503   58.2650 C.3     1  ZINC000507831344   -0.0500
     10 C10       -11.0098   -1.5974   59.0090 C.2     1  ZINC000507831344   -0.2200
     11 C11       -12.0243   -2.1980   58.3326 C.2     1  ZINC000507831344    0.2100
     12 C12       -11.9707   -2.3240   56.8319 C.3     1  ZINC000507831344   -0.1400
     13 N13       -13.0879   -2.6841   59.0264 N.pl3   1  ZINC000507831344   -0.3000
     14 N14       -14.2566   -3.3376   58.6177 N.am    1  ZINC000507831344   -0.5100
     15 C15       -14.9956   -3.6126   59.7095 C.2     1  ZINC000507831344    0.5500
     16 O16       -16.0771   -4.1780   59.7161 O.2     1  ZINC000507831344   -0.5400
     17 C17       -14.3145   -3.1415   60.8309 C.2     1  ZINC000507831344   -0.3500
     18 C18       -13.1249   -2.5637   60.3929 C.2     1  ZINC000507831344    0.3500
     19 N19       -12.1212   -1.9711   61.0500 N.2     1  ZINC000507831344   -0.4800
     20 C20       -11.0785   -1.4969   60.4029 C.2     1  ZINC000507831344    0.2500
     21 C21        -9.9596   -0.8339   61.1643 C.3     1  ZINC000507831344   -0.1200
     22 C22        -7.3580    3.0619   55.5321 C.ar    1  ZINC000507831344    0.0800
     23 N23        -6.3651    3.5177   54.7920 N.ar    1  ZINC000507831344   -0.4900
     24 C24        -5.1043    3.4170   55.1816 C.ar    1  ZINC000507831344    0.2800
     25 N25        -4.0903    3.9131   54.3669 N.3     1  ZINC000507831344   -0.4800
     26 C26        -4.1128    3.2689   53.0474 C.3     1  ZINC000507831344    0.0600
     27 C27        -2.9020    3.7297   52.2327 C.3     1  ZINC000507831344   -0.1200
     28 C28        -2.9463    5.2525   52.0787 C.3     1  ZINC000507831344   -0.1200
     29 C29        -2.9709    5.8976   53.4671 C.3     1  ZINC000507831344   -0.1100
     30 C30        -4.1796    5.3739   54.2461 C.3     1  ZINC000507831344    0.0900
     31 H31        -5.0951    5.6393   53.7174 H       1  ZINC000507831344    0.0600
     32 C32        -4.1970    6.0005   55.6418 C.3     1  ZINC000507831344   -0.1400
     33 H33        -3.0383    3.6147   57.3266 H       1  ZINC000507831344    0.0700
     34 H34        -3.2357    1.8553   57.5116 H       1  ZINC000507831344    0.0600
     35 H35        -2.7105    2.5329   55.9516 H       1  ZINC000507831344    0.0800
     36 H36        -5.5728    1.8505   58.1389 H       1  ZINC000507831344    0.1500
     37 H37        -8.3664    2.3788   58.3902 H       1  ZINC000507831344    0.4100
     38 H38       -10.1228    0.9999   58.8523 H       1  ZINC000507831344    0.1000
     39 H39       -10.9929    0.5215   57.3751 H       1  ZINC000507831344    0.1000
     40 H40        -9.6761   -1.6141   57.3431 H       1  ZINC000507831344    0.0900
     41 H41        -8.9287   -1.1404   58.8876 H       1  ZINC000507831344    0.1000
     42 H42       -11.4831   -3.2611   56.5632 H       1  ZINC000507831344    0.1000
     43 H43       -12.9839   -2.3133   56.4300 H       1  ZINC000507831344    0.0800
     44 H44       -11.4064   -1.4888   56.4170 H       1  ZINC000507831344    0.1100
     45 H45       -14.4942   -3.5551   57.7028 H       1  ZINC000507831344    0.4400
     46 H46       -14.6493   -3.2115   61.8553 H       1  ZINC000507831344    0.1700
     47 H47       -10.1908   -0.8415   62.2296 H       1  ZINC000507831344    0.0900
     48 H48        -9.0304   -1.3763   60.9903 H       1  ZINC000507831344    0.1000
     49 H49        -9.8487    0.1956   60.8239 H       1  ZINC000507831344    0.0900
     50 H50        -8.3749    3.1655   55.1833 H       1  ZINC000507831344    0.1600
     51 H51        -4.0766    2.1866   53.1711 H       1  ZINC000507831344    0.0700
     52 H52        -5.0285    3.5441   52.5244 H       1  ZINC000507831344    0.0500
     53 H53        -1.9856    3.4425   52.7485 H       1  ZINC000507831344    0.0700
     54 H54        -2.9273    3.2634   51.2478 H       1  ZINC000507831344    0.0700
     55 H55        -2.0630    5.5895   51.5361 H       1  ZINC000507831344    0.0700
     56 H56        -3.8433    5.5371   51.5288 H       1  ZINC000507831344    0.0600
     57 H57        -2.0556    5.6446   54.0023 H       1  ZINC000507831344    0.0700
     58 H58        -3.0455    6.9801   53.3642 H       1  ZINC000507831344    0.0700
     59 H59        -4.3517    7.0760   55.5554 H       1  ZINC000507831344    0.0600
     60 H60        -5.0062    5.5629   56.2265 H       1  ZINC000507831344    0.0500
     61 H61        -3.2456    5.8089   56.1380 H       1  ZINC000507831344    0.0600
@<TRIPOS>BOND
     1     1     2    1
     2     1    33    1
     3     1    34    1
     4     1    35    1
     5     2    24   ar
     6     2     3   ar
     7     3     4   ar
     8     3    36    1
     9     4     5    1
    10     4    22   ar
    11     5     6   am
    12     5    37    1
    13     6     7    2
    14     6     8    1
    15     8     9    1
    16     8    38    1
    17     8    39    1
    18     9    10    1
    19     9    40    1
    20     9    41    1
    21    10    20    1
    22    10    11    2
    23    11    12    1
    24    11    13    1
    25    12    42    1
    26    12    43    1
    27    12    44    1
    28    13    18    1
    29    13    14    1
    30    14    15   am
    31    14    45    1
    32    15    16    2
    33    15    17    1
    34    17    18    2
    35    17    46    1
    36    18    19    1
    37    19    20    2
    38    20    21    1
    39    21    47    1
    40    21    48    1
    41    21    49    1
    42    22    23   ar
    43    22    50    1
    44    23    24   ar
    45    24    25    1
    46    25    30    1
    47    25    26    1
    48    26    27    1
    49    26    51    1
    50    26    52    1
    51    27    28    1
    52    27    53    1
    53    27    54    1
    54    28    29    1
    55    28    55    1
    56    28    56    1
    57    29    30    1
    58    29    57    1
    59    29    58    1
    60    30    31    1
    61    30    32    1
    62    32    59    1
    63    32    60    1
    64    32    61    1
@<TRIPOS>SUBSTRUCTURE
     1 ZINC000507831344        1 TEMP              0 ****  ****    0 ROOT


##########                                Name:    ZINC001120957943
##########                DOCK_Rotatable_Bonds:                   4
##########                         Heavy_Atoms:                  27
##########                    Molecular_Weight:             396.802
##########                DOCK_Rotatable_Bonds:                   4
##########                       Formal_Charge:          -0.0199996
##########                     HBond_Acceptors:                  10
##########                        HBond_Donors:                   0
##########                         Heavy_Atoms:                  27
##########                          Grid_Score:          -35.426739
##########                     Grid_vdw_energy:          -36.163570
##########                      Grid_es_energy:            0.736833
##########           Internal_energy_repulsive:            9.770557

@<TRIPOS>MOLECULE
ZINC001120957943
 43 46 1 0 0
SMALL
USER_CHARGES


@<TRIPOS>ATOM
      1 C1        -11.4656   -5.3968   57.6305 C.3     1  ZINC001120957943    0.0900
      2 N2        -11.8807   -4.0591   58.0598 N.pl3   1  ZINC001120957943   -0.6000
      3 C3        -12.9762   -3.3749   57.3683 C.3     1  ZINC001120957943    0.2200
      4 C4        -12.9418   -3.7251   55.9030 C.2     1  ZINC001120957943    0.1600
      5 N5        -13.4173   -4.8124   55.3520 N.2     1  ZINC001120957943   -0.2500
      6 N6        -13.2151   -4.7798   54.0794 N.2     1  ZINC001120957943   -0.2800
      7 C7        -12.6049   -3.6774   53.7659 C.2     1  ZINC001120957943    0.1700
      8 C8        -12.1605   -3.2041   52.4048 C.3     1  ZINC001120957943   -0.0300
      9 C9        -11.1525   -2.0637   52.6015 C.3     1  ZINC001120957943   -0.1300
     10 C10       -11.7231   -1.0497   53.5972 C.3     1  ZINC001120957943   -0.1500
     11 H11       -12.7328   -0.7722   53.2942 H       1  ZINC001120957943    0.1300
     12 C12       -10.8368    0.1971   53.6190 C.3     1  ZINC001120957943    0.4600
     13 F13        -9.5427   -0.1574   54.0151 F       1  ZINC001120957943   -0.1700
     14 F14       -10.7945    0.7617   52.3396 F       1  ZINC001120957943   -0.1800
     15 F15       -11.3625    1.1272   54.5221 F       1  ZINC001120957943   -0.1800
     16 C16       -11.7632   -1.6718   54.9979 C.3     1  ZINC001120957943    0.1100
     17 N17       -12.4207   -2.9754   54.9127 N.pl3   1  ZINC001120957943   -0.4700
     18 C18       -11.2365   -3.4402   59.1210 C.ar    1  ZINC001120957943    0.3700
     19 C19        -9.9199   -3.8086   59.4484 C.ar    1  ZINC001120957943    0.0500
     20 N20        -9.2948   -3.2343   60.4478 N.ar    1  ZINC001120957943   -0.3900
     21 C21        -9.9132   -2.2879   61.1652 C.ar    1  ZINC001120957943    0.0400
     22 C22        -9.2652   -1.6570   62.2406 C.ar    1  ZINC001120957943   -0.0600
     23 C23        -9.9179   -0.6970   62.9533 C.ar    1  ZINC001120957943   -0.0400
     24 Cl24       -9.1125    0.0793   64.2808 Cl      1  ZINC001120957943   -0.0600
     25 C25       -11.2238   -0.3287   62.6312 C.ar    1  ZINC001120957943   -0.0800
     26 C26       -11.8817   -0.9188   61.5963 C.ar    1  ZINC001120957943   -0.0800
     27 C27       -11.2402   -1.9136   60.8386 C.ar    1  ZINC001120957943    0.1400
     28 N28       -11.8622   -2.5064   59.8120 N.ar    1  ZINC001120957943   -0.4700
     29 H29       -10.6888   -5.3099   56.8708 H       1  ZINC001120957943    0.0700
     30 H30       -11.0767   -5.9487   58.4862 H       1  ZINC001120957943    0.0800
     31 H31       -12.3224   -5.9272   57.2150 H       1  ZINC001120957943    0.0700
     32 H32       -13.9283   -3.6902   57.7951 H       1  ZINC001120957943    0.1200
     33 H33       -12.8639   -2.2972   57.4870 H       1  ZINC001120957943    0.1000
     34 H34       -11.6871   -4.0250   51.8662 H       1  ZINC001120957943    0.1100
     35 H35       -13.0209   -2.8418   51.8422 H       1  ZINC001120957943    0.1000
     36 H36       -10.2172   -2.4676   52.9891 H       1  ZINC001120957943    0.0900
     37 H37       -10.9688   -1.5718   51.6463 H       1  ZINC001120957943    0.1000
     38 H38       -10.7470   -1.7946   55.3726 H       1  ZINC001120957943    0.1000
     39 H39       -12.3268   -1.0241   55.6695 H       1  ZINC001120957943    0.1100
     40 H40        -9.4188   -4.5720   58.8717 H       1  ZINC001120957943    0.1700
     41 H41        -8.2539   -1.9322   62.5010 H       1  ZINC001120957943    0.1500
     42 H42       -11.7202    0.4352   63.2114 H       1  ZINC001120957943    0.1400
     43 H43       -12.8931   -0.6240   61.3583 H       1  ZINC001120957943    0.1500
@<TRIPOS>BOND
     1     1     2    1
     2     1    29    1
     3     1    30    1
     4     1    31    1
     5     2     3    1
     6     2    18    1
     7     3     4    1
     8     3    32    1
     9     3    33    1
    10     4    17    1
    11     4     5    2
    12     5     6    1
    13     6     7    2
    14     7    17    1
    15     7     8    1
    16     8     9    1
    17     8    34    1
    18     8    35    1
    19     9    10    1
    20     9    36    1
    21     9    37    1
    22    10    11    1
    23    10    12    1
    24    10    16    1
    25    12    13    1
    26    12    14    1
    27    12    15    1
    28    16    17    1
    29    16    38    1
    30    16    39    1
    31    18    28   ar
    32    18    19   ar
    33    19    20   ar
    34    19    40    1
    35    20    21   ar
    36    21    27   ar
    37    21    22   ar
    38    22    23   ar
    39    22    41    1
    40    23    24    1
    41    23    25   ar
    42    25    26   ar
    43    25    42    1
    44    26    27   ar
    45    26    43    1
    46    27    28   ar
@<TRIPOS>SUBSTRUCTURE
     1 ZINC001120957943        1 TEMP              0 ****  ****    0 ROOT


##########                                Name:    ZINC000409064708
##########                DOCK_Rotatable_Bonds:                   8
##########                         Heavy_Atoms:                  29
##########                    Molecular_Weight:             415.442
##########                DOCK_Rotatable_Bonds:                   8
##########                       Formal_Charge:                0.03
##########                     HBond_Acceptors:                   8
##########                        HBond_Donors:                   0
##########                         Heavy_Atoms:                  29
##########                          Grid_Score:          -35.392235
##########                     Grid_vdw_energy:          -35.059723
##########                      Grid_es_energy:           -0.332510
##########           Internal_energy_repulsive:           20.547901

@<TRIPOS>MOLECULE
ZINC000409064708
 47 49 1 0 0
SMALL
USER_CHARGES


@<TRIPOS>ATOM
      1 C1        -13.7845   -2.0050   53.4708 C.3     1  ZINC000409064708    0.0400
      2 O2        -14.2884   -2.5922   54.6994 O.3     1  ZINC000409064708   -0.3500
      3 C3        -14.0771   -3.9055   54.8786 C.2     1  ZINC000409064708    0.4600
      4 O4        -13.5443   -4.5557   54.0107 O.2     1  ZINC000409064708   -0.4900
      5 C5        -14.5044   -4.5692   56.1624 C.3     1  ZINC000409064708    0.1400
      6 H6        -15.5851   -4.4819   56.2743 H       1  ZINC000409064708    0.1500
      7 C7        -14.1129   -6.0477   56.1271 C.3     1  ZINC000409064708   -0.1600
      8 N8        -13.8421   -3.9154   57.2940 N.am    1  ZINC000409064708   -0.5600
      9 C9        -14.5546   -3.5211   58.3556 C.2     1  ZINC000409064708    0.5400
     10 O10       -15.7548   -3.6446   58.5089 O.2     1  ZINC000409064708   -0.4200
     11 S11       -13.4149   -2.7853   59.4960 S.3     1  ZINC000409064708   -0.0100
     12 C12       -11.9939   -3.0486   58.4656 C.2     1  ZINC000409064708   -0.2400
     13 C13       -10.7037   -2.7145   58.7214 C.2     1  ZINC000409064708    0.0900
     14 C14       -10.3537   -2.0502   59.9834 C.ar    1  ZINC000409064708   -0.1400
     15 C15       -10.9025   -0.8002   60.2953 C.ar    1  ZINC000409064708    0.0000
     16 C16       -10.5709   -0.1819   61.4798 C.ar    1  ZINC000409064708   -0.1600
     17 C17        -9.6926   -0.7960   62.3653 C.ar    1  ZINC000409064708    0.1600
     18 O18        -9.3691   -0.1819   63.5320 O.3     1  ZINC000409064708   -0.3000
     19 C19        -9.9483    1.1024   63.7715 C.3     1  ZINC000409064708    0.1000
     20 C20        -9.4545    1.6381   65.0907 C.ar    1  ZINC000409064708   -0.0700
     21 C21       -10.2579    2.4769   65.8400 C.ar    1  ZINC000409064708   -0.1000
     22 C22        -9.8062    2.9692   67.0505 C.ar    1  ZINC000409064708   -0.0900
     23 C23        -8.5509    2.6230   67.5126 C.ar    1  ZINC000409064708   -0.1400
     24 C24        -7.7452    1.7823   66.7630 C.ar    1  ZINC000409064708    0.1000
     25 F25        -6.5176    1.4432   67.2138 F       1  ZINC000409064708   -0.1400
     26 C26        -8.2006    1.2858   65.5536 C.ar    1  ZINC000409064708   -0.1300
     27 C27        -9.1447   -2.0368   62.0607 C.ar    1  ZINC000409064708   -0.2200
     28 C28        -9.4743   -2.6669   60.8819 C.ar    1  ZINC000409064708   -0.0400
     29 C29       -12.5348   -3.7157   57.2758 C.2     1  ZINC000409064708    0.5600
     30 O30       -11.8342   -4.0534   56.3398 O.2     1  ZINC000409064708   -0.4600
     31 H31       -12.7035   -2.1371   53.4217 H       1  ZINC000409064708    0.0700
     32 H32       -14.2496   -2.4959   52.6159 H       1  ZINC000409064708    0.0700
     33 H33       -14.0216   -0.9413   53.4524 H       1  ZINC000409064708    0.1100
     34 H34       -14.6057   -6.5341   55.2853 H       1  ZINC000409064708    0.1000
     35 H35       -13.0321   -6.1349   56.0153 H       1  ZINC000409064708    0.0800
     36 H36       -14.4219   -6.5277   57.0557 H       1  ZINC000409064708    0.0800
     37 H37        -9.9342   -2.9371   57.9969 H       1  ZINC000409064708    0.1600
     38 H38       -11.5844   -0.3219   59.6078 H       1  ZINC000409064708    0.1300
     39 H39       -10.9936    0.7820   61.7215 H       1  ZINC000409064708    0.1400
     40 H40        -9.6614    1.7851   62.9717 H       1  ZINC000409064708    0.0800
     41 H41       -11.0341    1.0116   63.7998 H       1  ZINC000409064708    0.0800
     42 H42       -11.2391    2.7483   65.4794 H       1  ZINC000409064708    0.1300
     43 H43       -10.4346    3.6248   67.6350 H       1  ZINC000409064708    0.1400
     44 H44        -8.1979    3.0082   68.4579 H       1  ZINC000409064708    0.1400
     45 H45        -7.5734    0.6298   64.9683 H       1  ZINC000409064708    0.1400
     46 H46        -8.4627   -2.5092   62.7520 H       1  ZINC000409064708    0.1300
     47 H47        -9.0481   -3.6309   60.6463 H       1  ZINC000409064708    0.1300
@<TRIPOS>BOND
     1     1     2    1
     2     1    31    1
     3     1    32    1
     4     1    33    1
     5     2     3    1
     6     3     4    2
     7     3     5    1
     8     5     6    1
     9     5     7    1
    10     5     8    1
    11     7    34    1
    12     7    35    1
    13     7    36    1
    14     8    29   am
    15     8     9   am
    16     9    10    2
    17     9    11    1
    18    11    12    1
    19    12    13    2
    20    12    29    1
    21    13    14    1
    22    13    37    1
    23    14    28   ar
    24    14    15   ar
    25    15    16   ar
    26    15    38    1
    27    16    17   ar
    28    16    39    1
    29    17    18    1
    30    17    27   ar
    31    18    19    1
    32    19    20    1
    33    19    40    1
    34    19    41    1
    35    20    26   ar
    36    20    21   ar
    37    21    22   ar
    38    21    42    1
    39    22    23   ar
    40    22    43    1
    41    23    24   ar
    42    23    44    1
    43    24    25    1
    44    24    26   ar
    45    26    45    1
    46    27    28   ar
    47    27    46    1
    48    28    47    1
    49    29    30    2
@<TRIPOS>SUBSTRUCTURE
     1 ZINC000409064708        1 TEMP              0 ****  ****    0 ROOT


##########                                Name:    ZINC001009116151
##########                DOCK_Rotatable_Bonds:                   6
##########                         Heavy_Atoms:                  25
##########                    Molecular_Weight:             342.481
##########                DOCK_Rotatable_Bonds:                   6
##########                       Formal_Charge:           0.0600006
##########                     HBond_Acceptors:                   4
##########                        HBond_Donors:                   1
##########                         Heavy_Atoms:                  25
##########                          Grid_Score:          -35.385796
##########                     Grid_vdw_energy:          -34.487488
##########                      Grid_es_energy:           -0.898309
##########           Internal_energy_repulsive:           13.372181

@<TRIPOS>MOLECULE
ZINC001009116151
 55 59 1 0 0
SMALL
USER_CHARGES


@<TRIPOS>ATOM
      1 O1        -10.7689   -4.9825   58.1427 O.2     1  ZINC001009116151   -0.5400
      2 C2        -11.5720   -4.0818   58.2645 C.2     1  ZINC001009116151    0.5200
      3 N3        -12.8042   -4.2010   57.7316 N.am    1  ZINC001009116151   -0.7300
      4 C4        -13.1714   -5.4158   56.9997 C.3     1  ZINC001009116151    0.1500
      5 C5        -13.3113   -5.0919   55.5110 C.3     1  ZINC001009116151   -0.1200
      6 H6        -13.6061   -5.9263   54.8747 H       1  ZINC001009116151    0.1100
      7 C7        -12.3480   -4.0605   54.9202 C.3     1  ZINC001009116151   -0.1700
      8 H8        -11.5588   -3.6425   55.5451 H       1  ZINC001009116151    0.1200
      9 C9        -12.1246   -4.0648   53.3925 C.3     1  ZINC001009116151    0.1300
     10 N10       -13.1998   -3.1988   52.8550 N.am    1  ZINC001009116151   -0.6200
     11 C11       -13.1157   -2.3028   51.8518 C.2     1  ZINC001009116151    0.5500
     12 O12       -12.0623   -2.1357   51.2746 O.2     1  ZINC001009116151   -0.5300
     13 C13       -14.3309   -1.5086   51.4472 C.3     1  ZINC001009116151   -0.1200
     14 C14       -14.4047   -0.1729   52.2228 C.3     1  ZINC001009116151   -0.0900
     15 C15       -13.7205    0.8312   51.3244 C.2     1  ZINC001009116151   -0.1800
     16 C16       -13.6129    0.3751   50.1062 C.2     1  ZINC001009116151   -0.1500
     17 C17       -14.2073   -1.0091   49.9890 C.3     1  ZINC001009116151   -0.0900
     18 C18       -14.3882   -3.5413   53.6706 C.3     1  ZINC001009116151    0.1200
     19 C19       -13.8314   -3.7023   55.1376 C.3     1  ZINC001009116151   -0.1600
     20 H20       -14.1755   -2.9920   55.8894 H       1  ZINC001009116151    0.1300
     21 C21       -11.1943   -2.8321   59.0173 C.3     1  ZINC001009116151   -0.0700
     22 C22       -10.8208   -1.7309   58.0229 C.3     1  ZINC001009116151   -0.1100
     23 C23       -10.4374   -0.4622   58.7872 C.3     1  ZINC001009116151   -0.1100
     24 C24       -10.5553   -0.7176   60.2911 C.3     1  ZINC001009116151   -0.0900
     25 C25       -11.9964   -1.1022   60.6317 C.3     1  ZINC001009116151   -0.1100
     26 C26       -12.3798   -2.3709   59.8674 C.3     1  ZINC001009116151   -0.0900
     27 C27        -9.6155   -1.8570   60.6902 C.3     1  ZINC001009116151   -0.1100
     28 C28        -9.9989   -3.1258   59.9259 C.3     1  ZINC001009116151   -0.1000
     29 H29       -13.4478   -3.4824   57.8324 H       1  ZINC001009116151    0.4000
     30 H30       -12.3967   -6.1703   57.1362 H       1  ZINC001009116151    0.0800
     31 H31       -14.1197   -5.7961   57.3796 H       1  ZINC001009116151    0.0700
     32 H32       -11.1460   -3.6502   53.1504 H       1  ZINC001009116151    0.0900
     33 H33       -12.2181   -5.0764   52.9975 H       1  ZINC001009116151    0.0800
     34 H34       -15.2410   -2.0926   51.5849 H       1  ZINC001009116151    0.1100
     35 H35       -15.4433    0.1126   52.3895 H       1  ZINC001009116151    0.0900
     36 H36       -13.8755   -0.2554   53.1722 H       1  ZINC001009116151    0.0800
     37 H37       -13.3673    1.7991   51.6478 H       1  ZINC001009116151    0.1300
     38 H38       -13.1589    0.9162   49.2892 H       1  ZINC001009116151    0.1300
     39 H39       -13.5440   -1.6602   49.4195 H       1  ZINC001009116151    0.0900
     40 H40       -15.1897   -0.9620   49.5191 H       1  ZINC001009116151    0.0900
     41 H41       -15.1175   -2.7318   53.6381 H       1  ZINC001009116151    0.0900
     42 H42       -14.8353   -4.4711   53.3190 H       1  ZINC001009116151    0.0800
     43 H43        -9.9762   -2.0596   57.4173 H       1  ZINC001009116151    0.0700
     44 H44       -11.6725   -1.5219   57.3756 H       1  ZINC001009116151    0.0700
     45 H45        -9.4106   -0.1882   58.5446 H       1  ZINC001009116151    0.0700
     46 H46       -11.1069    0.3495   58.5029 H       1  ZINC001009116151    0.0700
     47 H47       -10.2821    0.1864   60.8356 H       1  ZINC001009116151    0.0700
     48 H48       -12.0804   -1.2841   61.7032 H       1  ZINC001009116151    0.0700
     49 H49       -12.6660   -0.2904   60.3474 H       1  ZINC001009116151    0.0700
     50 H50       -13.2315   -2.1617   59.2201 H       1  ZINC001009116151    0.0700
     51 H51       -12.6460   -3.1554   60.5758 H       1  ZINC001009116151    0.0700
     52 H52        -8.5887   -1.5830   60.4475 H       1  ZINC001009116151    0.0700
     53 H53        -9.6994   -2.0389   61.7616 H       1  ZINC001009116151    0.0700
     54 H54       -10.2649   -3.9102   60.6344 H       1  ZINC001009116151    0.0700
     55 H55        -9.1543   -3.4544   59.3203 H       1  ZINC001009116151    0.0700
@<TRIPOS>BOND
     1     1     2    2
     2     2     3   am
     3     2    21    1
     4     3     4    1
     5     3    29    1
     6     4     5    1
     7     4    30    1
     8     4    31    1
     9     5     6    1
    10     5    19    1
    11     5     7    1
    12     7     8    1
    13     7    19    1
    14     7     9    1
    15     9    10    1
    16     9    32    1
    17     9    33    1
    18    10    11   am
    19    10    18    1
    20    11    12    2
    21    11    13    1
    22    13    17    1
    23    13    14    1
    24    13    34    1
    25    14    15    1
    26    14    35    1
    27    14    36    1
    28    15    16    2
    29    15    37    1
    30    16    17    1
    31    16    38    1
    32    17    39    1
    33    17    40    1
    34    18    19    1
    35    18    41    1
    36    18    42    1
    37    19    20    1
    38    21    26    1
    39    21    28    1
    40    21    22    1
    41    22    23    1
    42    22    43    1
    43    22    44    1
    44    23    24    1
    45    23    45    1
    46    23    46    1
    47    24    25    1
    48    24    27    1
    49    24    47    1
    50    25    26    1
    51    25    48    1
    52    25    49    1
    53    26    50    1
    54    26    51    1
    55    27    28    1
    56    27    52    1
    57    27    53    1
    58    28    54    1
    59    28    55    1
@<TRIPOS>SUBSTRUCTURE
     1 ZINC001009116151        1 TEMP              0 ****  ****    0 ROOT


##########                                Name:    ZINC000477589488
##########                DOCK_Rotatable_Bonds:                   6
##########                         Heavy_Atoms:                  32
##########                    Molecular_Weight:             423.517
##########                DOCK_Rotatable_Bonds:                   6
##########                       Formal_Charge:        -8.19564e-07
##########                     HBond_Acceptors:                   6
##########                        HBond_Donors:                   1
##########                         Heavy_Atoms:                  32
##########                          Grid_Score:          -35.373882
##########                     Grid_vdw_energy:          -33.785408
##########                      Grid_es_energy:           -1.588474
##########           Internal_energy_repulsive:           19.323984

@<TRIPOS>MOLECULE
ZINC000477589488
 57 61 1 0 0
SMALL
USER_CHARGES


@<TRIPOS>ATOM
      1 O1        -11.4309   -3.4355   54.3053 O.2     1  ZINC000477589488   -0.5800
      2 C2        -11.7095   -2.2519   54.3074 C.2     1  ZINC000477589488    0.7100
      3 N3        -11.7594   -1.5734   55.4708 N.am    1  ZINC000477589488   -0.7400
      4 C4        -11.4838   -2.2632   56.7335 C.3     1  ZINC000477589488    0.2500
      5 H5        -10.5987   -2.8891   56.6199 H       1  ZINC000477589488    0.1100
      6 C6        -12.6639   -3.1243   57.1035 C.ar    1  ZINC000477589488   -0.0900
      7 C7        -13.7987   -2.5471   57.6422 C.ar    1  ZINC000477589488   -0.1000
      8 C8        -14.8812   -3.3370   57.9817 C.ar    1  ZINC000477589488   -0.1200
      9 C9        -14.8292   -4.7039   57.7818 C.ar    1  ZINC000477589488   -0.1200
     10 C10       -13.6948   -5.2808   57.2422 C.ar    1  ZINC000477589488   -0.1200
     11 C11       -12.6138   -4.4904   56.8988 C.ar    1  ZINC000477589488   -0.1000
     12 C12       -11.2439   -1.2463   57.8195 C.ar    1  ZINC000477589488   -0.0700
     13 C13       -10.6171   -1.6273   59.0179 C.ar    1  ZINC000477589488   -0.0400
     14 C14       -10.2007   -2.9520   59.2346 C.ar    1  ZINC000477589488   -0.1100
     15 C15        -9.5965   -3.2845   60.4077 C.ar    1  ZINC000477589488   -0.1100
     16 C16        -9.3836   -2.3302   61.4011 C.ar    1  ZINC000477589488   -0.1100
     17 C17        -9.7738   -1.0382   61.2267 C.ar    1  ZINC000477589488   -0.1100
     18 C18       -10.4002   -0.6567   60.0278 C.ar    1  ZINC000477589488   -0.0500
     19 C19       -10.8163    0.6677   59.8112 C.ar    1  ZINC000477589488   -0.1000
     20 C20       -11.4195    1.0006   58.6371 C.ar    1  ZINC000477589488   -0.1100
     21 C21       -11.6283    0.0475   57.6423 C.ar    1  ZINC000477589488   -0.1100
     22 N22       -11.9631   -1.6174   53.1457 N.am    1  ZINC000477589488   -0.6300
     23 C23       -11.9199   -2.3403   51.8656 C.3     1  ZINC000477589488    0.1300
     24 C24       -13.2207   -2.0614   51.1050 C.3     1  ZINC000477589488    0.0500
     25 N25       -13.4167   -0.6099   50.9924 N.3     1  ZINC000477589488   -0.4700
     26 C26       -14.4986   -0.3154   50.1700 C.ar    1  ZINC000477589488    0.2500
     27 C27       -14.3110   -0.1479   48.7986 C.ar    1  ZINC000477589488   -0.1300
     28 C28       -15.4216    0.1446   48.0227 C.ar    1  ZINC000477589488   -0.0900
     29 C29       -16.6509    0.2525   48.6575 C.ar    1  ZINC000477589488    0.0200
     30 N30       -16.7372    0.0782   49.9614 N.ar    1  ZINC000477589488   -0.2200
     31 N31       -15.7140   -0.1982   50.6852 N.ar    1  ZINC000477589488   -0.2800
     32 C32       -13.5763    0.0105   52.3144 C.3     1  ZINC000477589488    0.0400
     33 C33       -12.2960   -0.1849   53.1251 C.3     1  ZINC000477589488    0.1200
     34 H34       -11.9776   -0.6283   55.4721 H       1  ZINC000477589488    0.3900
     35 H35       -13.8393   -1.4793   57.7984 H       1  ZINC000477589488    0.1100
     36 H36       -15.7675   -2.8862   58.4032 H       1  ZINC000477589488    0.1200
     37 H37       -15.6746   -5.3210   58.0477 H       1  ZINC000477589488    0.1200
     38 H38       -13.6540   -6.3488   57.0864 H       1  ZINC000477589488    0.1200
     39 H39       -11.7276   -4.9412   56.4772 H       1  ZINC000477589488    0.1200
     40 H40       -10.3597   -3.7024   58.4742 H       1  ZINC000477589488    0.1300
     41 H41        -9.2775   -4.3032   60.5717 H       1  ZINC000477589488    0.1300
     42 H42        -8.9021   -2.6206   62.3232 H       1  ZINC000477589488    0.1300
     43 H43        -9.6028   -0.3097   62.0056 H       1  ZINC000477589488    0.1300
     44 H44       -10.6588    1.4175   60.5723 H       1  ZINC000477589488    0.1300
     45 H45       -11.7388    2.0192   58.4733 H       1  ZINC000477589488    0.1300
     46 H46       -12.1089    0.3381   56.7198 H       1  ZINC000477589488    0.1200
     47 H47       -11.0703   -1.9932   51.2776 H       1  ZINC000477589488    0.0800
     48 H48       -11.8271   -3.4101   52.0522 H       1  ZINC000477589488    0.1100
     49 H49       -13.1602   -2.4986   50.1084 H       1  ZINC000477589488    0.1000
     50 H50       -14.0592   -2.5008   51.6452 H       1  ZINC000477589488    0.0600
     51 H51       -13.3308   -0.2425   48.3549 H       1  ZINC000477589488    0.1500
     52 H52       -15.3329    0.2847   46.9555 H       1  ZINC000477589488    0.1500
     53 H53       -17.5369    0.4797   48.0834 H       1  ZINC000477589488    0.1700
     54 H54       -13.7736    1.0758   52.1949 H       1  ZINC000477589488    0.1000
     55 H55       -14.4099   -0.4578   52.8378 H       1  ZINC000477589488    0.0600
     56 H56       -12.4497    0.1716   54.1436 H       1  ZINC000477589488    0.0800
     57 H57       -11.4801    0.3680   52.6598 H       1  ZINC000477589488    0.0900
@<TRIPOS>BOND
     1     1     2    2
     2     2     3   am
     3     2    22   am
     4     3     4    1
     5     3    34    1
     6     4     5    1
     7     4     6    1
     8     4    12    1
     9     6    11   ar
    10     6     7   ar
    11     7     8   ar
    12     7    35    1
    13     8     9   ar
    14     8    36    1
    15     9    10   ar
    16     9    37    1
    17    10    11   ar
    18    10    38    1
    19    11    39    1
    20    12    21   ar
    21    12    13   ar
    22    13    18   ar
    23    13    14   ar
    24    14    15   ar
    25    14    40    1
    26    15    16   ar
    27    15    41    1
    28    16    17   ar
    29    16    42    1
    30    17    18   ar
    31    17    43    1
    32    18    19   ar
    33    19    20   ar
    34    19    44    1
    35    20    21   ar
    36    20    45    1
    37    21    46    1
    38    22    33    1
    39    22    23    1
    40    23    24    1
    41    23    47    1
    42    23    48    1
    43    24    25    1
    44    24    49    1
    45    24    50    1
    46    25    26    1
    47    25    32    1
    48    26    31   ar
    49    26    27   ar
    50    27    28   ar
    51    27    51    1
    52    28    29   ar
    53    28    52    1
    54    29    30   ar
    55    29    53    1
    56    30    31   ar
    57    32    33    1
    58    32    54    1
    59    32    55    1
    60    33    56    1
    61    33    57    1
@<TRIPOS>SUBSTRUCTURE
     1 ZINC000477589488        1 TEMP              0 ****  ****    0 ROOT


##########                                Name:    ZINC000840464592
##########                DOCK_Rotatable_Bonds:                  10
##########                         Heavy_Atoms:                  26
##########                    Molecular_Weight:             360.497
##########                DOCK_Rotatable_Bonds:                  10
##########                       Formal_Charge:          -0.0399996
##########                     HBond_Acceptors:                   5
##########                        HBond_Donors:                   1
##########                         Heavy_Atoms:                  26
##########                          Grid_Score:          -35.360527
##########                     Grid_vdw_energy:          -35.252480
##########                      Grid_es_energy:           -0.108046
##########           Internal_energy_repulsive:           81.179077

@<TRIPOS>MOLECULE
ZINC000840464592
 58 59 1 0 0
SMALL
USER_CHARGES


@<TRIPOS>ATOM
      1 C1        -10.3031   -0.0488   62.4964 C.3     1  ZINC000840464592   -0.1500
      2 C2        -11.6747    0.2890   61.9086 C.3     1  ZINC000840464592   -0.1300
      3 C3        -12.6106   -0.9096   62.0762 C.3     1  ZINC000840464592   -0.1200
      4 C4        -13.9827   -0.5714   61.4895 C.3     1  ZINC000840464592   -0.1200
      5 C5        -14.8710   -1.8166   61.5191 C.3     1  ZINC000840464592   -0.1200
      6 C6        -14.4349   -2.7806   60.4139 C.3     1  ZINC000840464592    0.0600
      7 O7        -14.6616   -2.1772   59.1386 O.3     1  ZINC000840464592   -0.3600
      8 C8        -15.4820   -2.9554   58.2649 C.3     1  ZINC000840464592    0.0800
      9 H9        -15.2133   -4.0079   58.3559 H       1  ZINC000840464592    0.0800
     10 C10       -16.9522   -2.7696   58.6456 C.3     1  ZINC000840464592   -0.1800
     11 C11       -15.2704   -2.5042   56.8427 C.2     1  ZINC000840464592    0.5200
     12 O12       -15.9997   -1.6651   56.3578 O.2     1  ZINC000840464592   -0.5000
     13 N13       -14.2709   -3.0331   56.1095 N.am    1  ZINC000840464592   -0.6000
     14 C14       -14.0697   -2.5926   54.7313 C.3     1  ZINC000840464592    0.0900
     15 C15       -14.2697   -3.7368   53.7439 C.3     1  ZINC000840464592   -0.1600
     16 C16       -13.2315   -4.8338   53.9900 C.3     1  ZINC000840464592    0.0800
     17 N17       -13.7579   -5.7781   54.9817 N.am    1  ZINC000840464592   -0.7200
     18 C18       -13.8722   -5.4163   56.2694 C.2     1  ZINC000840464592    0.5100
     19 O19       -14.3553   -6.1787   57.0796 O.2     1  ZINC000840464592   -0.5200
     20 C20       -13.3876   -4.0431   56.7017 C.3     1  ZINC000840464592    0.1400
     21 H21       -13.4218   -3.9687   57.7886 H       1  ZINC000840464592    0.1300
     22 C22       -11.9519   -3.8297   56.2177 C.3     1  ZINC000840464592   -0.1000
     23 C23       -11.0964   -3.3702   57.3700 C.ar    1  ZINC000840464592   -0.0900
     24 C24       -10.6858   -4.2759   58.3302 C.ar    1  ZINC000840464592   -0.1100
     25 C25        -9.9010   -3.8545   59.3872 C.ar    1  ZINC000840464592   -0.1200
     26 C26        -9.5264   -2.5274   59.4838 C.ar    1  ZINC000840464592   -0.1200
     27 C27        -9.9362   -1.6219   58.5231 C.ar    1  ZINC000840464592   -0.1200
     28 C28       -10.7175   -2.0442   57.4639 C.ar    1  ZINC000840464592   -0.1100
     29 H29        -9.8866   -0.9107   61.9750 H       1  ZINC000840464592    0.0500
     30 H30        -9.6363    0.8052   62.3769 H       1  ZINC000840464592    0.0500
     31 H31       -10.4093   -0.2815   63.5559 H       1  ZINC000840464592    0.0500
     32 H32       -12.0911    1.1509   62.4299 H       1  ZINC000840464592    0.0600
     33 H33       -11.5686    0.5217   60.8489 H       1  ZINC000840464592    0.0600
     34 H34       -12.1947   -1.7713   61.5540 H       1  ZINC000840464592    0.0600
     35 H35       -12.7161   -1.1429   63.1357 H       1  ZINC000840464592    0.0600
     36 H36       -14.4455    0.2192   62.0803 H       1  ZINC000840464592    0.0600
     37 H37       -13.8644   -0.2337   60.4600 H       1  ZINC000840464592    0.0600
     38 H38       -14.7763   -2.3076   62.4877 H       1  ZINC000840464592    0.0700
     39 H39       -15.9092   -1.5262   61.3589 H       1  ZINC000840464592    0.0700
     40 H40       -13.3744   -3.0058   60.5259 H       1  ZINC000840464592    0.0500
     41 H41       -15.0118   -3.7025   60.4874 H       1  ZINC000840464592    0.0500
     42 H42       -17.5819   -3.3059   57.9357 H       1  ZINC000840464592    0.0800
     43 H43       -17.1200   -3.1615   59.6487 H       1  ZINC000840464592    0.0700
     44 H44       -17.2018   -1.7088   58.6234 H       1  ZINC000840464592    0.0800
     45 H45       -14.7802   -1.7978   54.5041 H       1  ZINC000840464592    0.1000
     46 H46       -13.0568   -2.2041   54.6258 H       1  ZINC000840464592    0.0800
     47 H47       -15.2700   -4.1514   53.8692 H       1  ZINC000840464592    0.0800
     48 H48       -14.1622   -3.3593   52.7270 H       1  ZINC000840464592    0.1000
     49 H49       -13.0291   -5.3601   53.0572 H       1  ZINC000840464592    0.0900
     50 H50       -12.3108   -4.3869   54.3651 H       1  ZINC000840464592    0.1000
     51 H51       -14.0252   -6.6686   54.7054 H       1  ZINC000840464592    0.4000
     52 H52       -11.5582   -4.7666   55.8238 H       1  ZINC000840464592    0.0900
     53 H53       -11.9417   -3.0730   55.4331 H       1  ZINC000840464592    0.1000
     54 H54       -10.9785   -5.3128   58.2548 H       1  ZINC000840464592    0.1200
     55 H55        -9.5809   -4.5620   60.1378 H       1  ZINC000840464592    0.1200
     56 H56        -8.9138   -2.1980   60.3100 H       1  ZINC000840464592    0.1200
     57 H57        -9.6438   -0.5849   58.5988 H       1  ZINC000840464592    0.1200
     58 H58       -11.0376   -1.3366   56.7133 H       1  ZINC000840464592    0.1200
@<TRIPOS>BOND
     1     1     2    1
     2     1    29    1
     3     1    30    1
     4     1    31    1
     5     2     3    1
     6     2    32    1
     7     2    33    1
     8     3     4    1
     9     3    34    1
    10     3    35    1
    11     4     5    1
    12     4    36    1
    13     4    37    1
    14     5     6    1
    15     5    38    1
    16     5    39    1
    17     6     7    1
    18     6    40    1
    19     6    41    1
    20     7     8    1
    21     8     9    1
    22     8    10    1
    23     8    11    1
    24    10    42    1
    25    10    43    1
    26    10    44    1
    27    11    12    2
    28    11    13   am
    29    13    20    1
    30    13    14    1
    31    14    15    1
    32    14    45    1
    33    14    46    1
    34    15    16    1
    35    15    47    1
    36    15    48    1
    37    16    17    1
    38    16    49    1
    39    16    50    1
    40    17    18   am
    41    17    51    1
    42    18    19    2
    43    18    20    1
    44    20    21    1
    45    20    22    1
    46    22    23    1
    47    22    52    1
    48    22    53    1
    49    23    28   ar
    50    23    24   ar
    51    24    25   ar
    52    24    54    1
    53    25    26   ar
    54    25    55    1
    55    26    27   ar
    56    26    56    1
    57    27    28   ar
    58    27    57    1
    59    28    58    1
@<TRIPOS>SUBSTRUCTURE
     1 ZINC000840464592        1 TEMP              0 ****  ****    0 ROOT


##########                                Name:    ZINC000603906271
##########                DOCK_Rotatable_Bonds:                   8
##########                         Heavy_Atoms:                  29
##########                    Molecular_Weight:             391.473
##########                DOCK_Rotatable_Bonds:                   8
##########                       Formal_Charge:           0.0499998
##########                     HBond_Acceptors:                   7
##########                        HBond_Donors:                   3
##########                         Heavy_Atoms:                  29
##########                          Grid_Score:          -35.337143
##########                     Grid_vdw_energy:          -33.078037
##########                      Grid_es_energy:           -2.259106
##########           Internal_energy_repulsive:           25.109623

@<TRIPOS>MOLECULE
ZINC000603906271
 54 56 1 0 0
SMALL
USER_CHARGES


@<TRIPOS>ATOM
      1 C1        -11.3384    2.4213   59.7820 C.3     1  ZINC000603906271   -0.1600
      2 C2        -10.9812    1.7740   58.4425 C.3     1  ZINC000603906271    0.1300
      3 H3        -11.6213    2.1814   57.6599 H       1  ZINC000603906271    0.1200
      4 N4         -9.5795    2.0553   58.1226 N.am    1  ZINC000603906271   -0.7100
      5 C5         -9.2197    2.3277   56.8526 C.2     1  ZINC000603906271    0.5700
      6 O6        -10.0579    2.3384   55.9724 O.2     1  ZINC000603906271   -0.5300
      7 C7         -7.8054    2.6134   56.5300 C.ar    1  ZINC000603906271   -0.1400
      8 C8         -6.8126    2.4086   57.4895 C.ar    1  ZINC000603906271   -0.0800
      9 C9         -5.4947    2.6766   57.1820 C.ar    1  ZINC000603906271   -0.1200
     10 C10        -5.1563    3.1480   55.9258 C.ar    1  ZINC000603906271   -0.0400
     11 C11        -3.7147    3.4391   55.5972 C.3     1  ZINC000603906271   -0.0400
     12 C12        -3.3754    4.8711   56.0157 C.3     1  ZINC000603906271   -0.1400
     13 C13        -2.8122    2.4601   56.3506 C.3     1  ZINC000603906271   -0.1500
     14 C14        -3.4930    3.2818   54.0915 C.3     1  ZINC000603906271   -0.1400
     15 C15        -6.1356    3.3528   54.9701 C.ar    1  ZINC000603906271   -0.1300
     16 C16        -7.4566    3.0835   55.2631 C.ar    1  ZINC000603906271   -0.0500
     17 C17       -11.1863    0.2839   58.5342 C.2     1  ZINC000603906271    0.5100
     18 O18       -12.1363   -0.1612   59.1431 O.2     1  ZINC000603906271   -0.5100
     19 N19       -10.3143   -0.5543   57.9397 N.am    1  ZINC000603906271   -0.6700
     20 C20       -10.5049   -1.9380   58.0248 C.ar    1  ZINC000603906271    0.1300
     21 C21        -9.6881   -2.7024   58.8487 C.ar    1  ZINC000603906271   -0.1200
     22 C22        -9.8734   -4.0694   58.9354 C.ar    1  ZINC000603906271   -0.1000
     23 C23       -10.8703   -4.6827   58.2037 C.ar    1  ZINC000603906271   -0.0900
     24 C24       -11.6940   -3.9236   57.3741 C.ar    1  ZINC000603906271    0.0000
     25 C25       -12.7660   -4.5816   56.5864 C.2     1  ZINC000603906271    0.2700
     26 N26       -13.2954   -5.7573   56.8447 N.2     1  ZINC000603906271   -0.3000
     27 N27       -14.2651   -5.9896   55.8559 N.pl3   1  ZINC000603906271   -0.4800
     28 C28       -14.2545   -4.9129   55.0494 C.2     1  ZINC000603906271    0.2700
     29 N29       -13.3588   -4.0736   55.4975 N.2     1  ZINC000603906271   -0.5300
     30 C30       -11.5127   -2.5460   57.2913 C.ar    1  ZINC000603906271   -0.0800
     31 H31       -10.6984    2.0140   60.5646 H       1  ZINC000603906271    0.0700
     32 H32       -11.1902    3.4992   59.7157 H       1  ZINC000603906271    0.0800
     33 H33       -12.3814    2.2120   60.0200 H       1  ZINC000603906271    0.0700
     34 H34        -8.9104    2.0456   58.8248 H       1  ZINC000603906271    0.4100
     35 H35        -7.0754    2.0413   58.4705 H       1  ZINC000603906271    0.1300
     36 H36        -4.7254    2.5186   57.9234 H       1  ZINC000603906271    0.1300
     37 H37        -3.5333    4.9832   57.0884 H       1  ZINC000603906271    0.0600
     38 H38        -2.3326    5.0817   55.7780 H       1  ZINC000603906271    0.0600
     39 H39        -4.0184    5.5686   55.4790 H       1  ZINC000603906271    0.0600
     40 H40        -3.0538    1.4399   56.0524 H       1  ZINC000603906271    0.0600
     41 H41        -1.7694    2.6707   56.1129 H       1  ZINC000603906271    0.0600
     42 H42        -2.9700    2.5722   57.4232 H       1  ZINC000603906271    0.0600
     43 H43        -4.1361    3.9793   53.5548 H       1  ZINC000603906271    0.0600
     44 H44        -2.4504    3.4924   53.8538 H       1  ZINC000603906271    0.0600
     45 H45        -3.7348    2.2616   53.7933 H       1  ZINC000603906271    0.0600
     46 H46        -5.8648    3.7205   53.9914 H       1  ZINC000603906271    0.1400
     47 H47        -8.2200    3.2434   54.5160 H       1  ZINC000603906271    0.1400
     48 H48        -9.5547   -0.1983   57.4527 H       1  ZINC000603906271    0.4200
     49 H49        -8.9063   -2.2274   59.4227 H       1  ZINC000603906271    0.1300
     50 H50        -9.2360   -4.6594   59.5773 H       1  ZINC000603906271    0.1400
     51 H51       -11.0119   -5.7511   58.2736 H       1  ZINC000603906271    0.1400
     52 H52       -14.8312   -6.7727   55.7710 H       1  ZINC000603906271    0.4400
     53 H53       -14.8821   -4.7654   54.1829 H       1  ZINC000603906271    0.2300
     54 H54       -12.1484   -1.9536   56.6500 H       1  ZINC000603906271    0.1500
@<TRIPOS>BOND
     1     1     2    1
     2     1    31    1
     3     1    32    1
     4     1    33    1
     5     2     3    1
     6     2     4    1
     7     2    17    1
     8     4     5   am
     9     4    34    1
    10     5     6    2
    11     5     7    1
    12     7    16   ar
    13     7     8   ar
    14     8     9   ar
    15     8    35    1
    16     9    10   ar
    17     9    36    1
    18    10    11    1
    19    10    15   ar
    20    11    12    1
    21    11    13    1
    22    11    14    1
    23    12    37    1
    24    12    38    1
    25    12    39    1
    26    13    40    1
    27    13    41    1
    28    13    42    1
    29    14    43    1
    30    14    44    1
    31    14    45    1
    32    15    16   ar
    33    15    46    1
    34    16    47    1
    35    17    18    2
    36    17    19   am
    37    19    20    1
    38    19    48    1
    39    20    30   ar
    40    20    21   ar
    41    21    22   ar
    42    21    49    1
    43    22    23   ar
    44    22    50    1
    45    23    24   ar
    46    23    51    1
    47    24    25    1
    48    24    30   ar
    49    25    29    1
    50    25    26    2
    51    26    27    1
    52    27    28    1
    53    27    52    1
    54    28    29    2
    55    28    53    1
    56    30    54    1
@<TRIPOS>SUBSTRUCTURE
     1 ZINC000603906271        1 TEMP              0 ****  ****    0 ROOT


##########                                Name:    ZINC001310073555
##########                DOCK_Rotatable_Bonds:                  12
##########                         Heavy_Atoms:                  27
##########                    Molecular_Weight:             380.484
##########                DOCK_Rotatable_Bonds:                  12
##########                       Formal_Charge:          0.00999888
##########                     HBond_Acceptors:                   7
##########                        HBond_Donors:                   2
##########                         Heavy_Atoms:                  27
##########                          Grid_Score:          -35.332825
##########                     Grid_vdw_energy:          -34.618931
##########                      Grid_es_energy:           -0.713892
##########           Internal_energy_repulsive:           42.727116

@<TRIPOS>MOLECULE
ZINC001310073555
 59 59 1 0 0
SMALL
USER_CHARGES


@<TRIPOS>ATOM
      1 C1        -14.7577   -0.2112   53.2243 C.3     1  ZINC001310073555   -0.1600
      2 C2        -13.4296   -0.6863   52.6318 C.3     1  ZINC001310073555   -0.1100
      3 C3        -12.6109   -1.3911   53.7153 C.3     1  ZINC001310073555   -0.0600
      4 C4        -11.1658   -1.5519   53.2389 C.3     1  ZINC001310073555   -0.1100
      5 C5        -11.1437   -2.3632   51.9420 C.3     1  ZINC001310073555   -0.1600
      6 C6        -12.6354   -0.5562   54.9972 C.3     1  ZINC001310073555    0.1600
      7 N7        -11.3716   -0.7300   55.7173 N.am    1  ZINC001310073555   -0.7400
      8 C8        -11.3527   -0.6905   57.0644 C.2     1  ZINC001310073555    0.7100
      9 O9        -12.3848   -0.5121   57.6820 O.2     1  ZINC001310073555   -0.5700
     10 N10       -10.1897   -0.8487   57.7269 N.am    1  ZINC001310073555   -0.6700
     11 C11       -10.1699   -0.8076   59.1299 C.ar    1  ZINC001310073555    0.1000
     12 C12       -10.6353    0.3147   59.7978 C.ar    1  ZINC001310073555   -0.0400
     13 C13       -10.6158    0.3554   61.1793 C.ar    1  ZINC001310073555   -0.2200
     14 C14       -10.1315   -0.7257   61.9003 C.ar    1  ZINC001310073555    0.1500
     15 O15       -10.1138   -0.6827   63.2592 O.3     1  ZINC001310073555   -0.3200
     16 C16        -9.1081    0.1286   63.8695 C.3     1  ZINC001310073555    0.0300
     17 C17        -9.6657   -1.8512   61.2365 C.ar    1  ZINC001310073555   -0.2300
     18 C18        -9.6880   -1.8966   59.8527 C.ar    1  ZINC001310073555    0.1400
     19 O19        -9.2318   -2.9989   59.2001 O.3     1  ZINC001310073555   -0.3100
     20 C20        -9.7997   -4.2557   59.5742 C.3     1  ZINC001310073555    0.0300
     21 C21       -13.2036   -2.7493   53.9889 C.2     1  ZINC001310073555    0.4800
     22 O22       -14.0444   -3.2018   53.2484 O.2     1  ZINC001310073555   -0.5000
     23 O23       -12.7975   -3.4566   55.0550 O.3     1  ZINC001310073555   -0.3400
     24 C24       -13.8268   -4.1085   55.8446 C.3     1  ZINC001310073555    0.1200
     25 C25       -15.0147   -3.1598   56.0170 C.3     1  ZINC001310073555   -0.1800
     26 C26       -14.2890   -5.3801   55.1301 C.3     1  ZINC001310073555   -0.1400
     27 C27       -13.2613   -4.4726   57.2189 C.3     1  ZINC001310073555   -0.1800
     28 H28       -15.3410    0.2910   52.4524 H       1  ZINC001310073555    0.0600
     29 H29       -15.3153   -1.0689   53.6006 H       1  ZINC001310073555    0.0500
     30 H30       -14.5633    0.4829   54.0420 H       1  ZINC001310073555    0.0600
     31 H31       -13.6240   -1.3803   51.8141 H       1  ZINC001310073555    0.0800
     32 H32       -12.8721    0.1716   52.2555 H       1  ZINC001310073555    0.0800
     33 H33       -10.7307   -0.5686   53.0599 H       1  ZINC001310073555    0.0800
     34 H34       -10.5873   -2.0717   54.0026 H       1  ZINC001310073555    0.0800
     35 H35       -11.5788   -3.3464   52.1210 H       1  ZINC001310073555    0.0600
     36 H36       -11.7223   -1.8434   51.1782 H       1  ZINC001310073555    0.0500
     37 H37       -10.1143   -2.4778   51.6026 H       1  ZINC001310073555    0.0600
     38 H38       -12.7673    0.4955   54.7433 H       1  ZINC001310073555    0.0800
     39 H39       -13.4614   -0.8840   55.6284 H       1  ZINC001310073555    0.0800
     40 H40       -10.5484   -0.8735   55.2247 H       1  ZINC001310073555    0.4000
     41 H41        -9.3663   -0.9910   57.2343 H       1  ZINC001310073555    0.4100
     42 H42       -11.0128    1.1578   59.2382 H       1  ZINC001310073555    0.1500
     43 H43       -10.9780    1.2306   61.6981 H       1  ZINC001310073555    0.1300
     44 H44        -8.1224   -0.2318   63.5750 H       1  ZINC001310073555    0.0600
     45 H45        -9.2288    1.1622   63.5453 H       1  ZINC001310073555    0.0600
     46 H46        -9.2058    0.0741   64.9537 H       1  ZINC001310073555    0.1000
     47 H47        -9.2888   -2.6927   61.7988 H       1  ZINC001310073555    0.1400
     48 H48        -9.3491   -5.0497   58.9788 H       1  ZINC001310073555    0.1000
     49 H49        -9.6081   -4.4408   60.6312 H       1  ZINC001310073555    0.0600
     50 H50       -10.8753   -4.2353   59.3982 H       1  ZINC001310073555    0.0600
     51 H51       -15.4176   -2.9005   55.0380 H       1  ZINC001310073555    0.0600
     52 H52       -15.7875   -3.6492   56.6099 H       1  ZINC001310073555    0.0700
     53 H53       -14.6854   -2.2540   56.5261 H       1  ZINC001310073555    0.0800
     54 H54       -13.4427   -6.0559   55.0074 H       1  ZINC001310073555    0.0700
     55 H55       -15.0618   -5.8694   55.7230 H       1  ZINC001310073555    0.0800
     56 H56       -14.6919   -5.1207   54.1512 H       1  ZINC001310073555    0.0700
     57 H57       -12.9320   -3.5667   57.7279 H       1  ZINC001310073555    0.0800
     58 H58       -14.0340   -4.9621   57.8117 H       1  ZINC001310073555    0.0700
     59 H59       -12.4150   -5.1485   57.0961 H       1  ZINC001310073555    0.0600
@<TRIPOS>BOND
     1     1     2    1
     2     1    28    1
     3     1    29    1
     4     1    30    1
     5     2     3    1
     6     2    31    1
     7     2    32    1
     8     3     4    1
     9     3     6    1
    10     3    21    1
    11     4     5    1
    12     4    33    1
    13     4    34    1
    14     5    35    1
    15     5    36    1
    16     5    37    1
    17     6     7    1
    18     6    38    1
    19     6    39    1
    20     7     8   am
    21     7    40    1
    22     8     9    2
    23     8    10   am
    24    10    11    1
    25    10    41    1
    26    11    18   ar
    27    11    12   ar
    28    12    13   ar
    29    12    42    1
    30    13    14   ar
    31    13    43    1
    32    14    15    1
    33    14    17   ar
    34    15    16    1
    35    16    44    1
    36    16    45    1
    37    16    46    1
    38    17    18   ar
    39    17    47    1
    40    18    19    1
    41    19    20    1
    42    20    48    1
    43    20    49    1
    44    20    50    1
    45    21    22    2
    46    21    23    1
    47    23    24    1
    48    24    25    1
    49    24    26    1
    50    24    27    1
    51    25    51    1
    52    25    52    1
    53    25    53    1
    54    26    54    1
    55    26    55    1
    56    26    56    1
    57    27    57    1
    58    27    58    1
    59    27    59    1
@<TRIPOS>SUBSTRUCTURE
     1 ZINC001310073555        1 TEMP              0 ****  ****    0 ROOT


##########                                Name:    ZINC000545381384
##########                DOCK_Rotatable_Bonds:                   6
##########                         Heavy_Atoms:                  30
##########                    Molecular_Weight:             405.543
##########                DOCK_Rotatable_Bonds:                   6
##########                       Formal_Charge:                0.05
##########                     HBond_Acceptors:                   6
##########                        HBond_Donors:                   1
##########                         Heavy_Atoms:                  30
##########                          Grid_Score:          -35.331074
##########                     Grid_vdw_energy:          -35.379757
##########                      Grid_es_energy:            0.048684
##########           Internal_energy_repulsive:           16.496416

@<TRIPOS>MOLECULE
ZINC000545381384
 61 64 1 0 0
SMALL
USER_CHARGES


@<TRIPOS>ATOM
      1 C1        -14.9678   -4.2025   54.5575 C.3     1  ZINC000545381384   -0.2000
      2 C2        -13.4718   -4.3411   54.8471 C.3     1  ZINC000545381384    0.0500
      3 N3        -12.7426   -3.2479   54.1906 N.3     1  ZINC000545381384   -0.5300
      4 C4        -11.9629   -3.7463   53.0467 C.3     1  ZINC000545381384    0.0500
      5 C5        -11.5401   -2.5539   52.1891 C.3     1  ZINC000545381384   -0.0700
      6 C6        -10.8869   -1.5029   53.0544 C.ar    1  ZINC000545381384    0.1800
      7 C7        -11.0461   -1.5088   54.4351 C.ar    1  ZINC000545381384   -0.0800
      8 C8        -11.8643   -2.5574   55.1404 C.3     1  ZINC000545381384    0.0900
      9 C9        -10.4337   -0.5219   55.2036 C.ar    1  ZINC000545381384   -0.0700
     10 C10       -10.5872   -0.4993   56.6740 C.2     1  ZINC000545381384    0.5800
     11 O11       -11.4339    0.2069   57.1859 O.2     1  ZINC000545381384   -0.4800
     12 N12        -9.7884   -1.2617   57.4466 N.am    1  ZINC000545381384   -0.6400
     13 C13        -9.9340   -1.2418   58.8322 C.2     1  ZINC000545381384    0.3000
     14 C14       -10.0140   -0.1324   59.6177 C.2     1  ZINC000545381384   -0.2700
     15 C15       -10.1552   -0.5545   60.9422 C.2     1  ZINC000545381384    0.1000
     16 C16       -10.2803    0.3448   62.1449 C.3     1  ZINC000545381384   -0.0300
     17 C17       -11.7400    0.7714   62.3130 C.3     1  ZINC000545381384   -0.0600
     18 C18       -11.9015    1.5273   63.6334 C.3     1  ZINC000545381384   -0.1500
     19 C19       -12.1423    1.6823   61.1514 C.3     1  ZINC000545381384   -0.1400
     20 C20       -12.6359   -0.4688   62.3225 C.3     1  ZINC000545381384   -0.1400
     21 N21       -10.1608   -1.8627   60.9614 N.2     1  ZINC000545381384   -0.2700
     22 N22       -10.0281   -2.3251   59.6458 N.pl3   1  ZINC000545381384   -0.3900
     23 C23        -9.9891   -3.7275   59.2238 C.3     1  ZINC000545381384    0.1000
     24 C24        -9.6594    0.4591   54.5375 C.ar    1  ZINC000545381384   -0.0700
     25 C25        -9.0112    1.4833   55.2395 C.ar    1  ZINC000545381384   -0.1100
     26 C26        -8.2748    2.4056   54.5583 C.ar    1  ZINC000545381384   -0.1000
     27 C27        -8.1587    2.3432   53.1711 C.ar    1  ZINC000545381384   -0.1000
     28 C28        -8.7761    1.3626   52.4582 C.ar    1  ZINC000545381384   -0.0900
     29 C29        -9.5449    0.3919   53.1268 C.ar    1  ZINC000545381384    0.1400
     30 N30       -10.1618   -0.5803   52.4562 N.ar    1  ZINC000545381384   -0.4600
     31 H31       -15.3177   -3.2322   54.9100 H       1  ZINC000545381384    0.0600
     32 H32       -15.1390   -4.2824   53.4841 H       1  ZINC000545381384    0.0600
     33 H33       -15.5125   -4.9940   55.0724 H       1  ZINC000545381384    0.0700
     34 H34       -13.3043   -4.2949   55.9232 H       1  ZINC000545381384    0.0900
     35 H35       -13.1148   -5.2973   54.4646 H       1  ZINC000545381384    0.0800
     36 H36       -11.0774   -4.2699   53.4076 H       1  ZINC000545381384    0.0500
     37 H37       -12.5760   -4.4247   52.4536 H       1  ZINC000545381384    0.0900
     38 H38       -10.8335   -2.8874   51.4291 H       1  ZINC000545381384    0.1000
     39 H39       -12.4180   -2.1283   51.7032 H       1  ZINC000545381384    0.1000
     40 H40       -12.4705   -2.0826   55.9119 H       1  ZINC000545381384    0.0900
     41 H41       -11.1966   -3.2821   55.6064 H       1  ZINC000545381384    0.0700
     42 H42        -9.1119   -1.8244   57.0382 H       1  ZINC000545381384    0.4100
     43 H43        -9.9749    0.8918   59.2775 H       1  ZINC000545381384    0.1700
     44 H44        -9.9538   -0.1920   63.0355 H       1  ZINC000545381384    0.0800
     45 H45        -9.6575    1.2283   62.0044 H       1  ZINC000545381384    0.0800
     46 H46       -11.2633    2.4108   63.6267 H       1  ZINC000545381384    0.0500
     47 H47       -12.9415    1.8312   63.7532 H       1  ZINC000545381384    0.0500
     48 H48       -11.6150    0.8784   64.4611 H       1  ZINC000545381384    0.0800
     49 H49       -12.0272    1.1438   60.2108 H       1  ZINC000545381384    0.0600
     50 H50       -13.1821    1.9862   61.2712 H       1  ZINC000545381384    0.0600
     51 H51       -11.5040    2.5658   61.1447 H       1  ZINC000545381384    0.0600
     52 H52       -12.3493   -1.1177   63.1501 H       1  ZINC000545381384    0.0500
     53 H53       -13.6758   -0.1649   62.4423 H       1  ZINC000545381384    0.0500
     54 H54       -12.5207   -1.0074   61.3818 H       1  ZINC000545381384    0.0500
     55 H55       -11.0018   -4.0726   59.0154 H       1  ZINC000545381384    0.0800
     56 H56        -9.3816   -3.8192   58.3234 H       1  ZINC000545381384    0.0800
     57 H57        -9.5548   -4.3341   60.0184 H       1  ZINC000545381384    0.1000
     58 H58        -9.0947    1.5420   56.3146 H       1  ZINC000545381384    0.1300
     59 H59        -7.7753    3.1949   55.1003 H       1  ZINC000545381384    0.1300
     60 H60        -7.5692    3.0855   52.6534 H       1  ZINC000545381384    0.1400
     61 H61        -8.6766    1.3293   51.3833 H       1  ZINC000545381384    0.1400
@<TRIPOS>BOND
     1     1     2    1
     2     1    31    1
     3     1    32    1
     4     1    33    1
     5     2     3    1
     6     2    34    1
     7     2    35    1
     8     3     8    1
     9     3     4    1
    10     4     5    1
    11     4    36    1
    12     4    37    1
    13     5     6    1
    14     5    38    1
    15     5    39    1
    16     6    30   ar
    17     6     7   ar
    18     7     8    1
    19     7     9   ar
    20     8    40    1
    21     8    41    1
    22     9    10    1
    23     9    24   ar
    24    10    11    2
    25    10    12   am
    26    12    13    1
    27    12    42    1
    28    13    22    1
    29    13    14    2
    30    14    15    1
    31    14    43    1
    32    15    16    1
    33    15    21    2
    34    16    17    1
    35    16    44    1
    36    16    45    1
    37    17    18    1
    38    17    19    1
    39    17    20    1
    40    18    46    1
    41    18    47    1
    42    18    48    1
    43    19    49    1
    44    19    50    1
    45    19    51    1
    46    20    52    1
    47    20    53    1
    48    20    54    1
    49    21    22    1
    50    22    23    1
    51    23    55    1
    52    23    56    1
    53    23    57    1
    54    24    29   ar
    55    24    25   ar
    56    25    26   ar
    57    25    58    1
    58    26    27   ar
    59    26    59    1
    60    27    28   ar
    61    27    60    1
    62    28    29   ar
    63    28    61    1
    64    29    30   ar
@<TRIPOS>SUBSTRUCTURE
     1 ZINC000545381384        1 TEMP              0 ****  ****    0 ROOT


##########                                Name:    ZINC000006915700
##########                DOCK_Rotatable_Bonds:                   5
##########                         Heavy_Atoms:                  26
##########                    Molecular_Weight:             369.447
##########                DOCK_Rotatable_Bonds:                   5
##########                       Formal_Charge:        -1.04308e-07
##########                     HBond_Acceptors:                   8
##########                        HBond_Donors:                   1
##########                         Heavy_Atoms:                  26
##########                          Grid_Score:          -35.329735
##########                     Grid_vdw_energy:          -32.553860
##########                      Grid_es_energy:           -2.775877
##########           Internal_energy_repulsive:            5.059808

@<TRIPOS>MOLECULE
ZINC000006915700
 45 48 1 0 0
SMALL
USER_CHARGES


@<TRIPOS>ATOM
      1 C1         -8.4329    4.4091   55.8507 C.3     1  <0>        -0.1200
      2 C2         -8.8746    3.0001   56.1518 C.ar    1  <0>        -0.0500
      3 C3         -9.0534    2.5998   57.4640 C.ar    1  <0>        -0.1300
      4 C4         -9.4582    1.3112   57.7460 C.ar    1  <0>        -0.0600
      5 C5         -9.6870    0.4114   56.7048 C.ar    1  <0>        -0.0700
      6 C6        -10.1220   -0.9729   57.0007 C.2     1  <0>         0.4400
      7 N7        -10.9920   -1.5688   56.1958 N.2     1  <0>        -0.5200
      8 C8        -11.3934   -2.8180   56.4498 C.2     1  <0>         0.3600
      9 C9        -12.2699   -3.6831   55.8075 C.2     1  <0>        -0.3200
     10 C10       -12.2985   -4.8752   56.5330 C.2     1  <0>         0.5500
     11 O11       -12.9621   -5.8617   56.2582 O.2     1  <0>        -0.5200
     12 N12       -11.4689   -4.7528   57.5875 N.am    1  <0>        -0.5000
     13 N13       -10.8950   -3.4782   57.5540 N.pl3   1  <0>        -0.3300
     14 C14       -10.0010   -2.8375   58.3626 C.2     1  <0>         0.3900
     15 S15        -9.3446   -3.6513   59.7810 S.3     1  <0>         0.1200
     16 C16        -9.4273   -2.3016   60.9841 C.3     1  <0>        -0.1500
     17 C17       -10.8678   -1.9255   61.2186 C.2     1  <0>         0.5500
     18 O18       -11.7555   -2.6645   60.8488 O.2     1  <0>        -0.5200
     19 N19       -11.1694   -0.7679   61.8393 N.am    1  <0>        -0.6100
     20 C20       -10.1973    0.2201   62.3297 C.3     1  <0>         0.0900
     21 C21       -10.9982    1.3631   62.9883 C.3     1  <0>        -0.1300
     22 C22       -12.3502    0.6853   63.3349 C.3     1  <0>        -0.1400
     23 C23       -12.5290   -0.2794   62.1333 C.3     1  <0>         0.1000
     24 N24        -9.6275   -1.6016   58.0698 N.2     1  <0>        -0.5600
     25 C25        -9.5050    0.8212   55.3839 C.ar    1  <0>        -0.0500
     26 C26        -9.1051    2.1140   55.1145 C.ar    1  <0>        -0.1300
     27 H27        -9.3086    5.0487   55.7402 H       1  <0>         0.0800
     28 H28        -7.8142    4.7786   56.6685 H       1  <0>         0.0700
     29 H29        -7.8565    4.4194   54.9256 H       1  <0>         0.0700
     30 H30        -8.8756    3.2972   58.2691 H       1  <0>         0.1300
     31 H31        -9.5970    0.9997   58.7707 H       1  <0>         0.1300
     32 H32       -12.8293   -3.4712   54.9083 H       1  <0>         0.1800
     33 H33       -11.2983   -5.4339   58.2568 H       1  <0>         0.4400
     34 H34        -8.9785   -2.6242   61.9235 H       1  <0>         0.1400
     35 H35        -8.8844   -1.4382   60.5995 H       1  <0>         0.1400
     36 H36        -9.5379   -0.2417   63.0645 H       1  <0>         0.0800
     37 H37        -9.6122    0.6097   61.4966 H       1  <0>         0.0800
     38 H38       -10.4992    1.7126   63.8922 H       1  <0>         0.0900
     39 H39       -11.1470    2.1838   62.2867 H       1  <0>         0.0800
     40 H40       -12.2826    0.1363   64.2742 H       1  <0>         0.0800
     41 H41       -13.1569    1.4174   63.3693 H       1  <0>         0.0900
     42 H42       -12.9396    0.2543   61.2762 H       1  <0>         0.0800
     43 H43       -13.1763   -1.1121   62.4083 H       1  <0>         0.0800
     44 H44        -9.6805    0.1291   54.5736 H       1  <0>         0.1400
     45 H45        -8.9641    2.4325   54.0923 H       1  <0>         0.1300
@<TRIPOS>BOND
     1     1     2    1
     2     1    27    1
     3     1    28    1
     4     1    29    1
     5     2    26   ar
     6     2     3   ar
     7     3     4   ar
     8     3    30    1
     9     4     5   ar
    10     4    31    1
    11     5     6    1
    12     5    25   ar
    13     6    24    1
    14     6     7    2
    15     7     8    1
    16     8    13    1
    17     8     9    2
    18     9    10    1
    19     9    32    1
    20    10    11    2
    21    10    12   am
    22    12    13    1
    23    12    33    1
    24    13    14    1
    25    14    15    1
    26    14    24    2
    27    15    16    1
    28    16    17    1
    29    16    34    1
    30    16    35    1
    31    17    18    2
    32    17    19   am
    33    19    23    1
    34    19    20    1
    35    20    21    1
    36    20    36    1
    37    20    37    1
    38    21    22    1
    39    21    38    1
    40    21    39    1
    41    22    23    1
    42    22    40    1
    43    22    41    1
    44    23    42    1
    45    23    43    1
    46    25    26   ar
    47    25    44    1
    48    26    45    1
@<TRIPOS>SUBSTRUCTURE
     1 <0>         1 TEMP              0 ****  ****    0 ROOT


##########                                Name:    ZINC001344051361
##########                DOCK_Rotatable_Bonds:                   8
##########                         Heavy_Atoms:                  28
##########                    Molecular_Weight:             379.456
##########                DOCK_Rotatable_Bonds:                   8
##########                       Formal_Charge:          -0.0100006
##########                     HBond_Acceptors:                   5
##########                        HBond_Donors:                   0
##########                         Heavy_Atoms:                  28
##########                          Grid_Score:          -35.320038
##########                     Grid_vdw_energy:          -35.053829
##########                      Grid_es_energy:           -0.266210
##########           Internal_energy_repulsive:           19.025782

@<TRIPOS>MOLECULE
ZINC001344051361
 53 56 1 0 0
SMALL
USER_CHARGES


@<TRIPOS>ATOM
      1 O1        -11.6087    1.4604   52.8536 O.2     1  ZINC001344051361   -0.4800
      2 C2        -11.1395    0.9345   53.8350 C.2     1  ZINC001344051361    0.4800
      3 O3        -11.7836   -0.0861   54.4225 O.3     1  ZINC001344051361   -0.3500
      4 C4        -11.8264   -1.3434   53.6975 C.3     1  ZINC001344051361    0.0700
      5 C5        -12.7907   -2.3032   54.3974 C.3     1  ZINC001344051361   -0.1000
      6 H6        -13.3981   -1.7504   55.1140 H       1  ZINC001344051361    0.0900
      7 C7        -13.7002   -2.9619   53.3577 C.3     1  ZINC001344051361   -0.1200
      8 C8        -14.6869   -3.8973   54.0600 C.3     1  ZINC001344051361   -0.1300
      9 C9        -13.9101   -4.9979   54.7894 C.3     1  ZINC001344051361    0.0800
     10 N10       -12.9306   -4.3702   55.6867 N.am    1  ZINC001344051361   -0.6100
     11 C11       -12.8932   -4.6916   56.9951 C.2     1  ZINC001344051361    0.5600
     12 O12       -13.6746   -5.5079   57.4429 O.2     1  ZINC001344051361   -0.5300
     13 C13       -11.9017   -4.0514   57.8856 C.ar    1  ZINC001344051361   -0.1300
     14 C14       -10.7534   -4.7456   58.2698 C.ar    1  ZINC001344051361   -0.1000
     15 C15        -9.8319   -4.1422   59.1006 C.ar    1  ZINC001344051361   -0.1300
     16 C16       -10.0445   -2.8521   59.5532 C.ar    1  ZINC001344051361   -0.0900
     17 C17       -11.1809   -2.1586   59.1765 C.ar    1  ZINC001344051361   -0.1300
     18 C18       -12.1071   -2.7482   58.3410 C.ar    1  ZINC001344051361   -0.0600
     19 C19       -11.9924   -3.3853   55.1313 C.3     1  ZINC001344051361    0.1200
     20 C20        -9.8277    1.4202   54.3958 C.3     1  ZINC001344051361    0.0200
     21 O21        -8.9243    1.9892   53.4459 O.3     1  ZINC001344051361   -0.2500
     22 C22        -8.4517    1.1655   52.4738 C.ar    1  ZINC001344051361    0.1200
     23 C23        -8.6062   -0.2082   52.5913 C.ar    1  ZINC001344051361   -0.2000
     24 C24        -8.1253   -1.0434   51.6015 C.ar    1  ZINC001344051361   -0.0800
     25 C25        -7.4900   -0.5112   50.4946 C.ar    1  ZINC001344051361   -0.1500
     26 C26        -7.3345    0.8574   50.3754 C.ar    1  ZINC001344051361   -0.0800
     27 C27        -7.8191    1.6972   51.3594 C.ar    1  ZINC001344051361   -0.1400
     28 C28        -9.8391    2.0159   55.8050 C.3     1  ZINC001344051361   -0.1700
     29 C29        -9.2243    0.6359   55.5626 C.3     1  ZINC001344051361   -0.1100
     30 H30       -12.1684   -1.1637   52.6784 H       1  ZINC001344051361    0.0800
     31 H31       -10.8293   -1.7832   53.6739 H       1  ZINC001344051361    0.0800
     32 H32       -14.2513   -2.1920   52.8175 H       1  ZINC001344051361    0.0700
     33 H33       -13.0941   -3.5343   52.6556 H       1  ZINC001344051361    0.0700
     34 H34       -15.2766   -3.3300   54.7802 H       1  ZINC001344051361    0.0700
     35 H35       -15.3496   -4.3482   53.3213 H       1  ZINC001344051361    0.0800
     36 H36       -14.6006   -5.6080   55.3717 H       1  ZINC001344051361    0.1100
     37 H37       -13.3916   -5.6225   54.0620 H       1  ZINC001344051361    0.0700
     38 H38       -10.5868   -5.7529   57.9178 H       1  ZINC001344051361    0.1400
     39 H39        -8.9430   -4.6782   59.3986 H       1  ZINC001344051361    0.1300
     40 H40        -9.3202   -2.3845   60.2037 H       1  ZINC001344051361    0.1300
     41 H41       -11.3409   -1.1521   59.5335 H       1  ZINC001344051361    0.1300
     42 H42       -12.9937   -2.2056   58.0475 H       1  ZINC001344051361    0.1300
     43 H43       -11.3172   -3.8780   54.4316 H       1  ZINC001344051361    0.0700
     44 H44       -11.4177   -2.9320   55.9391 H       1  ZINC001344051361    0.1000
     45 H45        -9.1017   -0.6243   53.4560 H       1  ZINC001344051361    0.1300
     46 H46        -8.2452   -2.1128   51.6926 H       1  ZINC001344051361    0.1300
     47 H47        -7.1144   -1.1659   49.7221 H       1  ZINC001344051361    0.1300
     48 H48        -6.8376    1.2706   49.5101 H       1  ZINC001344051361    0.1300
     49 H49        -7.6973    2.7662   51.2659 H       1  ZINC001344051361    0.1300
     50 H50        -9.1575    2.8418   56.0079 H       1  ZINC001344051361    0.1200
     51 H51       -10.7953    2.0562   56.3266 H       1  ZINC001344051361    0.1200
     52 H52        -9.7761   -0.2316   55.9248 H       1  ZINC001344051361    0.1200
     53 H53        -8.1382    0.5541   55.6059 H       1  ZINC001344051361    0.1200
@<TRIPOS>BOND
     1     1     2    2
     2     2     3    1
     3     2    20    1
     4     3     4    1
     5     4     5    1
     6     4    30    1
     7     4    31    1
     8     5     6    1
     9     5    19    1
    10     5     7    1
    11     7     8    1
    12     7    32    1
    13     7    33    1
    14     8     9    1
    15     8    34    1
    16     8    35    1
    17     9    10    1
    18     9    36    1
    19     9    37    1
    20    10    11   am
    21    10    19    1
    22    11    12    2
    23    11    13    1
    24    13    18   ar
    25    13    14   ar
    26    14    15   ar
    27    14    38    1
    28    15    16   ar
    29    15    39    1
    30    16    17   ar
    31    16    40    1
    32    17    18   ar
    33    17    41    1
    34    18    42    1
    35    19    43    1
    36    19    44    1
    37    20    29    1
    38    20    21    1
    39    20    28    1
    40    21    22    1
    41    22    27   ar
    42    22    23   ar
    43    23    24   ar
    44    23    45    1
    45    24    25   ar
    46    24    46    1
    47    25    26   ar
    48    25    47    1
    49    26    27   ar
    50    26    48    1
    51    27    49    1
    52    28    29    1
    53    28    50    1
    54    28    51    1
    55    29    52    1
    56    29    53    1
@<TRIPOS>SUBSTRUCTURE
     1 ZINC001344051361        1 TEMP              0 ****  ****    0 ROOT


##########                                Name:    ZINC000821177065
##########                DOCK_Rotatable_Bonds:                  10
##########                         Heavy_Atoms:                  25
##########                    Molecular_Weight:             341.413
##########                DOCK_Rotatable_Bonds:                  10
##########                       Formal_Charge:          0.00999917
##########                     HBond_Acceptors:                   7
##########                        HBond_Donors:                   3
##########                         Heavy_Atoms:                  25
##########                          Grid_Score:          -35.315327
##########                     Grid_vdw_energy:          -33.892426
##########                      Grid_es_energy:           -1.422900
##########           Internal_energy_repulsive:           24.854734

@<TRIPOS>MOLECULE
ZINC000821177065
 48 51 1 0 0
SMALL
USER_CHARGES


@<TRIPOS>ATOM
      1 O1        -10.6634   -2.5165   56.8392 O.2     1  ZINC000821177065   -0.5600
      2 C2        -11.3922   -3.4884   56.8912 C.2     1  ZINC000821177065    0.7100
      3 N3        -11.7129   -4.1513   55.7624 N.am    1  ZINC000821177065   -0.7300
      4 C4        -11.1880   -3.6975   54.4721 C.3     1  ZINC000821177065    0.1200
      5 C5        -12.3176   -3.6786   53.4402 C.3     1  ZINC000821177065    0.1900
      6 O6        -12.6783   -5.0199   53.1042 O.3     1  ZINC000821177065   -0.5400
      7 C7        -13.5318   -2.9554   54.0263 C.3     1  ZINC000821177065   -0.1500
      8 C8        -14.8722   -3.1307   53.3097 C.3     1  ZINC000821177065   -0.1600
      9 C9        -14.6295   -3.8149   54.6566 C.3     1  ZINC000821177065   -0.1700
     10 C10       -11.8465   -2.9467   52.1819 C.3     1  ZINC000821177065   -0.1800
     11 C11       -12.6736   -1.7494   51.7096 C.3     1  ZINC000821177065   -0.1900
     12 C12       -11.3032   -1.5265   52.3523 C.3     1  ZINC000821177065   -0.1700
     13 N13       -11.8751   -3.9059   58.0781 N.am    1  ZINC000821177065   -0.6500
     14 C14       -11.5415   -3.2162   59.2523 C.2     1  ZINC000821177065    0.3200
     15 N15       -10.3271   -2.9921   59.6959 N.2     1  ZINC000821177065   -0.3200
     16 N16       -10.4256   -2.2736   60.8943 N.pl3   1  ZINC000821177065   -0.3600
     17 C17        -9.3039   -1.8182   61.7192 C.3     1  ZINC000821177065    0.1900
     18 C18        -9.7265   -0.6146   62.5216 C.ar    1  ZINC000821177065    0.1100
     19 C19        -9.5753   -0.6221   63.8950 C.ar    1  ZINC000821177065   -0.1500
     20 C20        -9.9669    0.4907   64.6240 C.ar    1  ZINC000821177065   -0.0700
     21 C21       -10.4981    1.5736   63.9408 C.ar    1  ZINC000821177065   -0.1700
     22 C22       -10.6189    1.5087   62.5653 C.ar    1  ZINC000821177065    0.1000
     23 N23       -10.2313    0.4358   61.9041 N.ar    1  ZINC000821177065   -0.4700
     24 C24       -11.7345   -2.0737   61.1557 C.2     1  ZINC000821177065    0.0700
     25 C25       -12.4482   -2.6395   60.1559 C.2     1  ZINC000821177065   -0.2600
     26 H26       -12.2911   -4.9290   55.8043 H       1  ZINC000821177065    0.4000
     27 H27       -10.7774   -2.6935   54.5797 H       1  ZINC000821177065    0.0700
     28 H28       -10.4035   -4.3772   54.1396 H       1  ZINC000821177065    0.0800
     29 H29       -12.1286   -5.4136   52.4130 H       1  ZINC000821177065    0.3800
     30 H30       -13.3272   -1.9866   54.4821 H       1  ZINC000821177065    0.1100
     31 H31       -15.5498   -2.2770   53.2938 H       1  ZINC000821177065    0.0900
     32 H32       -14.8890   -3.7612   52.4208 H       1  ZINC000821177065    0.1100
     33 H33       -14.4867   -4.8955   54.6537 H       1  ZINC000821177065    0.1000
     34 H34       -15.1474   -3.4113   55.5267 H       1  ZINC000821177065    0.0900
     35 H35       -11.3861   -3.5734   51.4181 H       1  ZINC000821177065    0.1100
     36 H36       -12.7577   -1.5882   50.6349 H       1  ZINC000821177065    0.1000
     37 H37       -13.5535   -1.4830   52.2953 H       1  ZINC000821177065    0.1100
     38 H38       -11.2813   -1.1137   53.3608 H       1  ZINC000821177065    0.0900
     39 H39       -10.4856   -1.2189   51.7003 H       1  ZINC000821177065    0.1000
     40 H40       -12.4533   -4.6836   58.1200 H       1  ZINC000821177065    0.4100
     41 H41        -9.0020   -2.6180   62.3956 H       1  ZINC000821177065    0.1000
     42 H42        -8.4654   -1.5502   61.0764 H       1  ZINC000821177065    0.1200
     43 H43        -9.1578   -1.4838   64.3946 H       1  ZINC000821177065    0.1400
     44 H44        -9.8609    0.5130   65.6986 H       1  ZINC000821177065    0.1400
     45 H45       -10.8139    2.4567   64.4763 H       1  ZINC000821177065    0.1400
     46 H46       -11.0321    2.3480   62.0256 H       1  ZINC000821177065    0.1600
     47 H47       -12.1398   -1.5507   62.0092 H       1  ZINC000821177065    0.1800
     48 H48       -13.5248   -2.6519   60.0715 H       1  ZINC000821177065    0.1700
@<TRIPOS>BOND
     1     1     2    2
     2     2     3   am
     3     2    13   am
     4     3     4    1
     5     3    26    1
     6     4     5    1
     7     4    27    1
     8     4    28    1
     9     5     6    1
    10     5     7    1
    11     5    10    1
    12     6    29    1
    13     7     9    1
    14     7     8    1
    15     7    30    1
    16     8     9    1
    17     8    31    1
    18     8    32    1
    19     9    33    1
    20     9    34    1
    21    10    12    1
    22    10    11    1
    23    10    35    1
    24    11    12    1
    25    11    36    1
    26    11    37    1
    27    12    38    1
    28    12    39    1
    29    13    14    1
    30    13    40    1
    31    14    25    1
    32    14    15    2
    33    15    16    1
    34    16    17    1
    35    16    24    1
    36    17    18    1
    37    17    41    1
    38    17    42    1
    39    18    23   ar
    40    18    19   ar
    41    19    20   ar
    42    19    43    1
    43    20    21   ar
    44    20    44    1
    45    21    22   ar
    46    21    45    1
    47    22    23   ar
    48    22    46    1
    49    24    25    2
    50    24    47    1
    51    25    48    1
@<TRIPOS>SUBSTRUCTURE
     1 ZINC000821177065        1 TEMP              0 ****  ****    0 ROOT


##########                                Name:    ZINC000151991096
##########                DOCK_Rotatable_Bonds:                   8
##########                         Heavy_Atoms:                  27
##########                    Molecular_Weight:             364.444
##########                DOCK_Rotatable_Bonds:                   8
##########                       Formal_Charge:          -0.0200004
##########                     HBond_Acceptors:                   5
##########                        HBond_Donors:                   1
##########                         Heavy_Atoms:                  27
##########                          Grid_Score:          -35.313385
##########                     Grid_vdw_energy:          -34.177052
##########                      Grid_es_energy:           -1.136334
##########           Internal_energy_repulsive:           12.305737

@<TRIPOS>MOLECULE
ZINC000151991096
 51 53 1 0 0
SMALL
USER_CHARGES


@<TRIPOS>ATOM
      1 C1        -13.9508   -6.1779   56.5725 C.3     1  ZINC000151991096   -0.1500
      2 C2        -14.1222   -4.9558   55.6679 C.3     1  ZINC000151991096   -0.1300
      3 C3        -12.8134   -4.1645   55.6264 C.3     1  ZINC000151991096    0.1400
      4 H4        -11.9765   -4.8524   55.5056 H       1  ZINC000151991096    0.1000
      5 N5        -12.6548   -3.4172   56.8765 N.am    1  ZINC000151991096   -0.7200
      6 C6        -11.7952   -3.8538   57.8182 C.2     1  ZINC000151991096    0.5600
      7 O7        -11.1525   -4.8688   57.6310 O.2     1  ZINC000151991096   -0.5300
      8 C8        -11.6341   -3.0998   59.0769 C.ar    1  ZINC000151991096   -0.1700
      9 C9        -12.6187   -2.1953   59.4825 C.ar    1  ZINC000151991096   -0.0500
     10 C10       -12.4650   -1.4942   60.6577 C.ar    1  ZINC000151991096   -0.1600
     11 C11       -11.3320   -1.6853   61.4400 C.ar    1  ZINC000151991096    0.1600
     12 O12       -11.1843   -0.9928   62.5977 O.3     1  ZINC000151991096   -0.3000
     13 C13        -9.9533   -0.2906   62.7811 C.3     1  ZINC000151991096    0.0900
     14 C14       -10.1779    0.8872   63.6939 C.ar    1  ZINC000151991096   -0.0500
     15 C15        -9.7811    0.8249   65.0133 C.ar    1  ZINC000151991096   -0.1000
     16 C16        -9.9867    1.9055   65.8528 C.ar    1  ZINC000151991096   -0.0900
     17 C17       -10.5914    3.0548   65.3761 C.ar    1  ZINC000151991096   -0.1200
     18 C18       -10.9934    3.1308   64.0584 C.ar    1  ZINC000151991096   -0.0700
     19 C19       -10.7835    2.0465   63.2043 C.ar    1  ZINC000151991096   -0.0200
     20 C20       -11.1981    2.1184   61.8355 C.1     1  ZINC000151991096    0.2400
     21 N21       -11.5270    2.1754   60.7497 N.1     1  ZINC000151991096   -0.4000
     22 C22       -10.3503   -2.5842   61.0399 C.ar    1  ZINC000151991096   -0.2200
     23 C23       -10.4991   -3.2930   59.8688 C.ar    1  ZINC000151991096   -0.0100
     24 C24       -12.8450   -3.1881   54.4489 C.3     1  ZINC000151991096    0.0700
     25 H25       -13.6981   -2.5169   54.5480 H       1  ZINC000151991096    0.1000
     26 C26       -12.9457   -3.9708   53.1221 C.3     1  ZINC000151991096   -0.1500
     27 C27       -12.0096   -3.1572   52.1875 C.3     1  ZINC000151991096   -0.1600
     28 C28       -10.9235   -2.6933   53.1904 C.3     1  ZINC000151991096    0.0500
     29 O29       -11.6309   -2.4289   54.4146 O.3     1  ZINC000151991096   -0.3700
     30 H30       -13.6917   -5.8511   57.5795 H       1  ZINC000151991096    0.0500
     31 H31       -14.8832   -6.7416   56.6020 H       1  ZINC000151991096    0.0500
     32 H32       -13.1554   -6.8116   56.1802 H       1  ZINC000151991096    0.0600
     33 H33       -14.3812   -5.2826   54.6609 H       1  ZINC000151991096    0.0700
     34 H34       -14.9177   -4.3222   56.0602 H       1  ZINC000151991096    0.0700
     35 H35       -13.1684   -2.6081   57.0264 H       1  ZINC000151991096    0.4000
     36 H36       -13.4991   -2.0460   58.8751 H       1  ZINC000151991096    0.1300
     37 H37       -13.2254   -0.7945   60.9718 H       1  ZINC000151991096    0.1400
     38 H38        -9.2163   -0.9594   63.2257 H       1  ZINC000151991096    0.0800
     39 H39        -9.5888    0.0618   61.8162 H       1  ZINC000151991096    0.0800
     40 H40        -9.3090   -0.0696   65.3921 H       1  ZINC000151991096    0.1400
     41 H41        -9.6739    1.8513   66.8852 H       1  ZINC000151991096    0.1400
     42 H42       -10.7495    3.8943   66.0369 H       1  ZINC000151991096    0.1400
     43 H43       -11.4658    4.0285   63.6876 H       1  ZINC000151991096    0.1400
     44 H44        -9.4713   -2.7297   61.6504 H       1  ZINC000151991096    0.1300
     45 H45        -9.7360   -3.9916   59.5588 H       1  ZINC000151991096    0.1400
     46 H46       -12.5807   -4.9906   53.2446 H       1  ZINC000151991096    0.0800
     47 H47       -13.9688   -3.9664   52.7458 H       1  ZINC000151991096    0.0900
     48 H48       -11.5820   -3.7913   51.4109 H       1  ZINC000151991096    0.0800
     49 H49       -12.5323   -2.3052   51.7527 H       1  ZINC000151991096    0.0800
     50 H50       -10.1863   -3.4820   53.3414 H       1  ZINC000151991096    0.0600
     51 H51       -10.4392   -1.7855   52.8307 H       1  ZINC000151991096    0.0900
@<TRIPOS>BOND
     1     1     2    1
     2     1    30    1
     3     1    31    1
     4     1    32    1
     5     2     3    1
     6     2    33    1
     7     2    34    1
     8     3     4    1
     9     3     5    1
    10     3    24    1
    11     5     6   am
    12     5    35    1
    13     6     7    2
    14     6     8    1
    15     8    23   ar
    16     8     9   ar
    17     9    10   ar
    18     9    36    1
    19    10    11   ar
    20    10    37    1
    21    11    12    1
    22    11    22   ar
    23    12    13    1
    24    13    14    1
    25    13    38    1
    26    13    39    1
    27    14    19   ar
    28    14    15   ar
    29    15    16   ar
    30    15    40    1
    31    16    17   ar
    32    16    41    1
    33    17    18   ar
    34    17    42    1
    35    18    19   ar
    36    18    43    1
    37    19    20    1
    38    20    21    3
    39    22    23   ar
    40    22    44    1
    41    23    45    1
    42    24    25    1
    43    24    29    1
    44    24    26    1
    45    26    27    1
    46    26    46    1
    47    26    47    1
    48    27    28    1
    49    27    48    1
    50    27    49    1
    51    28    29    1
    52    28    50    1
    53    28    51    1
@<TRIPOS>SUBSTRUCTURE
     1 ZINC000151991096        1 TEMP              0 ****  ****    0 ROOT


##########                                Name:    ZINC000623695407
##########                DOCK_Rotatable_Bonds:                  10
##########                         Heavy_Atoms:                  27
##########                    Molecular_Weight:             368.479
##########                DOCK_Rotatable_Bonds:                  10
##########                       Formal_Charge:           0.0299989
##########                     HBond_Acceptors:                   6
##########                        HBond_Donors:                   2
##########                         Heavy_Atoms:                  27
##########                          Grid_Score:          -35.302940
##########                     Grid_vdw_energy:          -35.404198
##########                      Grid_es_energy:            0.101256
##########           Internal_energy_repulsive:           12.615520

@<TRIPOS>MOLECULE
ZINC000623695407
 55 57 1 0 0
SMALL
USER_CHARGES


@<TRIPOS>ATOM
      1 C1         -9.5931   -2.4560   61.4043 C.3     1  ZINC000623695407    0.0300
      2 O2         -8.9438   -2.3231   60.1382 O.3     1  ZINC000623695407   -0.3200
      3 C3         -9.7359   -2.3390   59.0339 C.ar    1  ZINC000623695407    0.1300
      4 C4        -10.4103   -3.4983   58.6792 C.ar    1  ZINC000623695407   -0.2100
      5 C5        -11.2153   -3.5117   57.5566 C.ar    1  ZINC000623695407   -0.0600
      6 C6        -11.3487   -2.3710   56.7866 C.ar    1  ZINC000623695407   -0.1100
      7 C7        -12.2270   -2.3886   55.5621 C.3     1  ZINC000623695407    0.0600
      8 N8        -11.3889   -2.4886   54.3598 N.3     1  ZINC000623695407   -0.4600
      9 C9        -11.1351   -3.8983   54.0083 C.3     1  ZINC000623695407    0.0000
     10 C10       -11.3472   -3.5118   52.5378 C.3     1  ZINC000623695407   -0.1300
     11 C11       -12.2061   -2.3889   53.1361 C.3     1  ZINC000623695407    0.0100
     12 H12       -13.2481   -2.6719   53.2855 H       1  ZINC000623695407    0.0900
     13 C13       -12.0548   -1.0519   52.4078 C.3     1  ZINC000623695407    0.1600
     14 N14       -10.7805   -0.4335   52.7820 N.am    1  ZINC000623695407   -0.7400
     15 C15       -10.6132    0.8974   52.6509 C.2     1  ZINC000623695407    0.7100
     16 O16       -11.5193    1.5846   52.2207 O.2     1  ZINC000623695407   -0.5900
     17 N17        -9.4414    1.4665   52.9966 N.am    1  ZINC000623695407   -0.7400
     18 C18        -9.2590    2.9130   52.8524 C.3     1  ZINC000623695407    0.1700
     19 H19       -10.2276    3.4092   52.9129 H       1  ZINC000623695407    0.0900
     20 C20        -8.3519    3.4268   53.9723 C.3     1  ZINC000623695407   -0.1600
     21 C21        -8.6159    3.2132   51.4970 C.3     1  ZINC000623695407   -0.0900
     22 C22        -7.2899    2.5036   51.4019 C.ar    1  ZINC000623695407   -0.0300
     23 C23        -6.1150    3.1430   51.7665 C.ar    1  ZINC000623695407   -0.1700
     24 C24        -4.9175    2.4603   51.6658 C.ar    1  ZINC000623695407    0.1000
     25 N25        -4.8849    1.2166   51.2288 N.ar    1  ZINC000623695407   -0.4900
     26 C26        -5.9821    0.5773   50.8734 C.ar    1  ZINC000623695407    0.1000
     27 C27        -7.2165    1.1937   50.9530 C.ar    1  ZINC000623695407   -0.1700
     28 C28       -10.6780   -1.2143   57.1383 C.ar    1  ZINC000623695407   -0.0700
     29 C29        -9.8759   -1.1942   58.2629 C.ar    1  ZINC000623695407   -0.1500
     30 H30        -8.8480   -2.4276   62.1994 H       1  ZINC000623695407    0.1000
     31 H31       -10.2990   -1.6363   61.5384 H       1  ZINC000623695407    0.0600
     32 H32       -10.1274   -3.4053   61.4407 H       1  ZINC000623695407    0.0600
     33 H33       -10.3058   -4.3896   59.2800 H       1  ZINC000623695407    0.1300
     34 H34       -11.7405   -4.4139   57.2800 H       1  ZINC000623695407    0.1200
     35 H35       -12.8988   -3.2457   55.6090 H       1  ZINC000623695407    0.0600
     36 H36       -12.8123   -1.4700   55.5215 H       1  ZINC000623695407    0.0700
     37 H37       -10.1189   -4.2247   54.2292 H       1  ZINC000623695407    0.0900
     38 H38       -11.8912   -4.5840   54.3905 H       1  ZINC000623695407    0.0700
     39 H39       -10.4457   -3.1638   52.0333 H       1  ZINC000623695407    0.1000
     40 H40       -11.9103   -4.2451   51.9604 H       1  ZINC000623695407    0.0800
     41 H41       -12.0746   -1.2204   51.3310 H       1  ZINC000623695407    0.0700
     42 H42       -12.8754   -0.3911   52.6874 H       1  ZINC000623695407    0.0700
     43 H43       -10.0572   -0.9819   53.1241 H       1  ZINC000623695407    0.3900
     44 H44        -8.7190    0.9185   53.3410 H       1  ZINC000623695407    0.3900
     45 H45        -8.2162    4.5030   53.8649 H       1  ZINC000623695407    0.0700
     46 H46        -8.8101    3.2129   54.9379 H       1  ZINC000623695407    0.0700
     47 H47        -7.3833    2.9305   53.9118 H       1  ZINC000623695407    0.0600
     48 H48        -9.2720    2.8660   50.6987 H       1  ZINC000623695407    0.1000
     49 H49        -8.4610    4.2877   51.3983 H       1  ZINC000623695407    0.0800
     50 H50        -6.1352    4.1618   52.1244 H       1  ZINC000623695407    0.1300
     51 H51        -3.9978    2.9513   51.9478 H       1  ZINC000623695407    0.1500
     52 H52        -5.9158   -0.4410   50.5199 H       1  ZINC000623695407    0.1600
     53 H53        -8.1117    0.6649   50.6608 H       1  ZINC000623695407    0.1400
     54 H54       -10.7841   -0.3245   56.5353 H       1  ZINC000623695407    0.1200
     55 H55        -9.3523   -0.2904   58.5372 H       1  ZINC000623695407    0.1300
@<TRIPOS>BOND
     1     1     2    1
     2     1    30    1
     3     1    31    1
     4     1    32    1
     5     2     3    1
     6     3    29   ar
     7     3     4   ar
     8     4     5   ar
     9     4    33    1
    10     5     6   ar
    11     5    34    1
    12     6     7    1
    13     6    28   ar
    14     7     8    1
    15     7    35    1
    16     7    36    1
    17     8    11    1
    18     8     9    1
    19     9    10    1
    20     9    37    1
    21     9    38    1
    22    10    11    1
    23    10    39    1
    24    10    40    1
    25    11    12    1
    26    11    13    1
    27    13    14    1
    28    13    41    1
    29    13    42    1
    30    14    15   am
    31    14    43    1
    32    15    16    2
    33    15    17   am
    34    17    18    1
    35    17    44    1
    36    18    19    1
    37    18    20    1
    38    18    21    1
    39    20    45    1
    40    20    46    1
    41    20    47    1
    42    21    22    1
    43    21    48    1
    44    21    49    1
    45    22    27   ar
    46    22    23   ar
    47    23    24   ar
    48    23    50    1
    49    24    25   ar
    50    24    51    1
    51    25    26   ar
    52    26    27   ar
    53    26    52    1
    54    27    53    1
    55    28    29   ar
    56    28    54    1
    57    29    55    1
@<TRIPOS>SUBSTRUCTURE
     1 ZINC000623695407        1 TEMP              0 ****  ****    0 ROOT


##########                                Name:    ZINC000179743483
##########                DOCK_Rotatable_Bonds:                   5
##########                         Heavy_Atoms:                  23
##########                    Molecular_Weight:             393.347
##########                DOCK_Rotatable_Bonds:                   5
##########                       Formal_Charge:          -0.0199999
##########                     HBond_Acceptors:                   4
##########                        HBond_Donors:                   0
##########                         Heavy_Atoms:                  23
##########                          Grid_Score:          -35.290680
##########                     Grid_vdw_energy:          -35.001965
##########                      Grid_es_energy:           -0.288714
##########           Internal_energy_repulsive:           28.957008

@<TRIPOS>MOLECULE
ZINC000179743483
 44 46 1 0 0
SMALL
USER_CHARGES


@<TRIPOS>ATOM
      1 C1        -14.9197   -3.5127   53.6580 C.3     1  ZINC000179743483   -0.1400
      2 C2        -13.7881   -3.2807   54.6614 C.3     1  ZINC000179743483   -0.1000
      3 H3        -13.9739   -2.3582   55.2116 H       1  ZINC000179743483    0.1000
      4 C4        -13.7261   -4.4548   55.6405 C.3     1  ZINC000179743483   -0.0700
      5 C5        -12.6068   -4.2300   56.6242 C.ar    1  ZINC000179743483   -0.0600
      6 C6        -12.2462   -2.9432   56.9784 C.ar    1  ZINC000179743483   -0.1100
      7 C7        -11.2200   -2.7366   57.8810 C.ar    1  ZINC000179743483   -0.0900
      8 C8        -10.5538   -3.8175   58.4299 C.ar    1  ZINC000179743483   -0.0900
      9 Br9        -9.1502   -3.5354   59.6652 Br      1  ZINC000179743483   -0.0500
     10 C10       -10.9150   -5.1048   58.0752 C.ar    1  ZINC000179743483   -0.0900
     11 C11       -11.9448   -5.3106   57.1766 C.ar    1  ZINC000179743483   -0.1100
     12 C12       -12.4781   -3.1711   53.9248 C.2     1  ZINC000179743483    0.5200
     13 O13       -11.7004   -4.1017   53.9289 O.2     1  ZINC000179743483   -0.5300
     14 N14       -12.1705   -2.0389   53.2613 N.am    1  ZINC000179743483   -0.6100
     15 C15       -13.1024   -0.9031   53.2471 C.3     1  ZINC000179743483    0.1000
     16 C16       -12.3585    0.3509   53.7172 C.3     1  ZINC000179743483   -0.1400
     17 C17       -11.1098    0.5515   52.8554 C.3     1  ZINC000179743483   -0.1100
     18 C18       -10.1780   -0.6517   53.0166 C.3     1  ZINC000179743483   -0.0200
     19 H19        -9.9053   -0.7627   54.0661 H       1  ZINC000179743483    0.0900
     20 C20        -8.9338   -0.4382   52.1936 C.2     1  ZINC000179743483    0.0500
     21 N21        -8.3366   -1.3529   51.5070 N.2     1  ZINC000179743483   -0.4700
     22 C22        -7.2568   -0.9956   50.8411 C.2     1  ZINC000179743483    0.0400
     23 C23        -6.9250    0.2921   50.9735 C.2     1  ZINC000179743483   -0.2600
     24 S24        -8.1135    1.0528   52.0286 S.3     1  ZINC000179743483    0.1300
     25 C25       -10.8945   -1.9149   52.5437 C.3     1  ZINC000179743483    0.1200
     26 H26       -14.6957   -4.3926   53.0549 H       1  ZINC000179743483    0.0700
     27 H27       -15.8552   -3.6687   54.1950 H       1  ZINC000179743483    0.0700
     28 H28       -15.0141   -2.6420   53.0091 H       1  ZINC000179743483    0.0600
     29 H29       -14.6717   -4.5307   56.1772 H       1  ZINC000179743483    0.0900
     30 H30       -13.5458   -5.3779   55.0896 H       1  ZINC000179743483    0.0800
     31 H31       -12.7661   -2.0994   56.5495 H       1  ZINC000179743483    0.1300
     32 H32       -10.9381   -1.7313   58.1573 H       1  ZINC000179743483    0.1300
     33 H33       -10.3952   -5.9489   58.5035 H       1  ZINC000179743483    0.1300
     34 H34       -12.2270   -6.3157   56.8996 H       1  ZINC000179743483    0.1300
     35 H35       -13.4750   -0.7489   52.2344 H       1  ZINC000179743483    0.0700
     36 H36       -13.9366   -1.1064   53.9187 H       1  ZINC000179743483    0.0900
     37 H37       -13.0108    1.2187   53.6200 H       1  ZINC000179743483    0.0800
     38 H38       -12.0653    0.2304   54.7601 H       1  ZINC000179743483    0.0700
     39 H39       -11.4019    0.6470   51.8096 H       1  ZINC000179743483    0.0800
     40 H40       -10.5918    1.4569   53.1718 H       1  ZINC000179743483    0.0700
     41 H41        -6.6868   -1.6870   50.2383 H       1  ZINC000179743483    0.1800
     42 H42        -6.0796    0.7810   50.5121 H       1  ZINC000179743483    0.1800
     43 H43       -10.2724   -2.7862   52.7484 H       1  ZINC000179743483    0.0900
     44 H44       -11.0892   -1.8456   51.4734 H       1  ZINC000179743483    0.0800
@<TRIPOS>BOND
     1     1     2    1
     2     1    26    1
     3     1    27    1
     4     1    28    1
     5     2     3    1
     6     2     4    1
     7     2    12    1
     8     4     5    1
     9     4    29    1
    10     4    30    1
    11     5    11   ar
    12     5     6   ar
    13     6     7   ar
    14     6    31    1
    15     7     8   ar
    16     7    32    1
    17     8     9    1
    18     8    10   ar
    19    10    11   ar
    20    10    33    1
    21    11    34    1
    22    12    13    2
    23    12    14   am
    24    14    25    1
    25    14    15    1
    26    15    16    1
    27    15    35    1
    28    15    36    1
    29    16    17    1
    30    16    37    1
    31    16    38    1
    32    17    18    1
    33    17    39    1
    34    17    40    1
    35    18    19    1
    36    18    20    1
    37    18    25    1
    38    20    24    1
    39    20    21    2
    40    21    22    1
    41    22    23    2
    42    22    41    1
    43    23    24    1
    44    23    42    1
    45    25    43    1
    46    25    44    1
@<TRIPOS>SUBSTRUCTURE
     1 ZINC000179743483        1 TEMP              0 ****  ****    0 ROOT


##########                                Name:    ZINC000185180600
##########                DOCK_Rotatable_Bonds:                   7
##########                         Heavy_Atoms:                  26
##########                    Molecular_Weight:             395.953
##########                DOCK_Rotatable_Bonds:                   7
##########                       Formal_Charge:          0.00999977
##########                     HBond_Acceptors:                   7
##########                        HBond_Donors:                   0
##########                         Heavy_Atoms:                  26
##########                          Grid_Score:          -35.260773
##########                     Grid_vdw_energy:          -34.433697
##########                      Grid_es_energy:           -0.827077
##########           Internal_energy_repulsive:           22.166935

@<TRIPOS>MOLECULE
ZINC000185180600
 52 53 1 0 0
SMALL
USER_CHARGES


@<TRIPOS>ATOM
      1 C1        -14.5986   -1.6238   51.1618 C.3     1  ZINC000185180600   -0.1500
      2 C2        -13.6727   -1.7741   52.3705 C.3     1  ZINC000185180600   -0.0900
      3 C3        -13.8085   -0.5459   53.2727 C.3     1  ZINC000185180600   -0.1500
      4 C4        -14.0590   -3.0290   53.1559 C.3     1  ZINC000185180600   -0.1300
      5 C5        -12.9176   -3.4108   54.1005 C.3     1  ZINC000185180600    0.1300
      6 H6        -12.5172   -2.5117   54.5687 H       1  ZINC000185180600    0.1100
      7 C7        -11.8111   -4.1089   53.3072 C.3     1  ZINC000185180600   -0.1600
      8 N8        -13.4225   -4.3167   55.1353 N.am    1  ZINC000185180600   -0.6000
      9 C9        -14.5177   -5.2405   54.8294 C.3     1  ZINC000185180600    0.0700
     10 C10       -12.8795   -4.3004   56.3686 C.2     1  ZINC000185180600    0.5400
     11 O11       -13.2965   -5.0513   57.2248 O.2     1  ZINC000185180600   -0.5300
     12 C12       -11.7541   -3.3489   56.6840 C.3     1  ZINC000185180600   -0.5000
     13 S13       -11.5822   -3.1908   58.4830 S.o     1  ZINC000185180600    1.3200
     14 O14       -12.7627   -2.6125   59.0226 O.2     1  ZINC000185180600   -0.8000
     15 C15       -10.2028   -2.0261   58.6602 C.3     1  ZINC000185180600   -0.3900
     16 C16        -9.9320   -1.7870   60.1232 C.2     1  ZINC000185180600    0.1000
     17 N17       -10.4816   -0.8579   60.8632 N.2     1  ZINC000185180600   -0.2800
     18 N18        -9.9663   -0.9697   62.1611 N.pl3   1  ZINC000185180600   -0.3200
     19 C19       -10.3011   -0.1586   63.2547 C.ar    1  ZINC000185180600    0.1700
     20 C20        -9.3332    0.1821   64.1897 C.ar    1  ZINC000185180600   -0.1300
     21 C21        -9.6653    0.9811   65.2661 C.ar    1  ZINC000185180600   -0.0800
     22 C22       -10.9621    1.4417   65.4133 C.ar    1  ZINC000185180600   -0.0500
     23 Cl23      -11.3765    2.4459   66.7673 Cl      1  ZINC000185180600   -0.0600
     24 C24       -11.9286    1.1034   64.4824 C.ar    1  ZINC000185180600   -0.0800
     25 C25       -11.5998    0.3097   63.4011 C.ar    1  ZINC000185180600   -0.1100
     26 C26        -9.0889   -1.9984   62.1724 C.2     1  ZINC000185180600    0.0600
     27 C27        -9.0544   -2.5241   60.9258 C.2     1  ZINC000185180600   -0.2500
     28 H28       -14.3234   -0.7297   50.6022 H       1  ZINC000185180600    0.0500
     29 H29       -14.5020   -2.4987   50.5190 H       1  ZINC000185180600    0.0600
     30 H30       -15.6301   -1.5357   51.5029 H       1  ZINC000185180600    0.0500
     31 H31       -12.6412   -1.8621   52.0294 H       1  ZINC000185180600    0.0700
     32 H32       -13.4549    0.3371   52.7401 H       1  ZINC000185180600    0.0500
     33 H33       -14.8547   -0.4101   53.5468 H       1  ZINC000185180600    0.0500
     34 H34       -13.2124   -0.6894   54.1739 H       1  ZINC000185180600    0.0500
     35 H35       -14.9602   -2.8313   53.7362 H       1  ZINC000185180600    0.0700
     36 H36       -14.2461   -3.8486   52.4622 H       1  ZINC000185180600    0.0800
     37 H37       -12.2116   -5.0081   52.8391 H       1  ZINC000185180600    0.0600
     38 H38       -11.4355   -3.4349   52.5374 H       1  ZINC000185180600    0.0700
     39 H39       -10.9979   -4.3810   53.9802 H       1  ZINC000185180600    0.0600
     40 H40       -14.1075   -6.1815   54.4628 H       1  ZINC000185180600    0.0600
     41 H41       -15.1001   -5.4251   55.7320 H       1  ZINC000185180600    0.0700
     42 H42       -15.1600   -4.8022   54.0656 H       1  ZINC000185180600    0.0800
     43 H43       -10.8250   -3.7327   56.2626 H       1  ZINC000185180600    0.1500
     44 H44       -11.9727   -2.3721   56.2527 H       1  ZINC000185180600    0.1200
     45 H45        -9.3125   -2.4429   58.1893 H       1  ZINC000185180600    0.1400
     46 H46       -10.4602   -1.0823   58.1794 H       1  ZINC000185180600    0.1000
     47 H47        -8.3212   -0.1777   64.0757 H       1  ZINC000185180600    0.1400
     48 H48        -8.9127    1.2464   65.9938 H       1  ZINC000185180600    0.1500
     49 H49       -12.9400    1.4637   64.5996 H       1  ZINC000185180600    0.1400
     50 H50       -12.3546    0.0460   62.6750 H       1  ZINC000185180600    0.1500
     51 H51        -8.5210   -2.3421   63.0245 H       1  ZINC000185180600    0.1800
     52 H52        -8.4503   -3.3599   60.6053 H       1  ZINC000185180600    0.1700
@<TRIPOS>BOND
     1     1     2    1
     2     1    28    1
     3     1    29    1
     4     1    30    1
     5     2     3    1
     6     2     4    1
     7     2    31    1
     8     3    32    1
     9     3    33    1
    10     3    34    1
    11     4     5    1
    12     4    35    1
    13     4    36    1
    14     5     6    1
    15     5     7    1
    16     5     8    1
    17     7    37    1
    18     7    38    1
    19     7    39    1
    20     8     9    1
    21     8    10   am
    22     9    40    1
    23     9    41    1
    24     9    42    1
    25    10    11    2
    26    10    12    1
    27    12    13    1
    28    12    43    1
    29    12    44    1
    30    13    14    2
    31    13    15    1
    32    15    16    1
    33    15    45    1
    34    15    46    1
    35    16    27    1
    36    16    17    2
    37    17    18    1
    38    18    19    1
    39    18    26    1
    40    19    25   ar
    41    19    20   ar
    42    20    21   ar
    43    20    47    1
    44    21    22   ar
    45    21    48    1
    46    22    23    1
    47    22    24   ar
    48    24    25   ar
    49    24    49    1
    50    25    50    1
    51    26    27    2
    52    26    51    1
    53    27    52    1
@<TRIPOS>SUBSTRUCTURE
     1 ZINC000185180600        1 TEMP              0 ****  ****    0 ROOT


##########                                Name:    ZINC000028372981
##########                DOCK_Rotatable_Bonds:                   7
##########                         Heavy_Atoms:                  28
##########                    Molecular_Weight:             380.443
##########                DOCK_Rotatable_Bonds:                   7
##########                       Formal_Charge:         1.78814e-07
##########                     HBond_Acceptors:                   6
##########                        HBond_Donors:                   1
##########                         Heavy_Atoms:                  28
##########                          Grid_Score:          -35.213272
##########                     Grid_vdw_energy:          -33.539215
##########                      Grid_es_energy:           -1.674056
##########           Internal_energy_repulsive:           17.936031

@<TRIPOS>MOLECULE
ZINC000028372981
 52 54 1 0 0
SMALL
USER_CHARGES


@<TRIPOS>ATOM
      1 C1        -10.6484    0.9998   64.8664 C.3     1  ZINC000028372981   -0.1800
      2 C2        -11.7058    0.4059   63.9720 C.2     1  ZINC000028372981    0.5200
      3 O3        -12.8795    0.5615   64.2345 O.2     1  ZINC000028372981   -0.5100
      4 N4        -11.3471   -0.2985   62.8803 N.am    1  ZINC000028372981   -0.5500
      5 C5         -9.9659   -0.5510   62.4618 C.3     1  ZINC000028372981    0.1000
      6 C6        -10.0799   -1.3871   61.1767 C.3     1  ZINC000028372981   -0.0900
      7 C7        -11.5681   -1.5484   60.9604 C.ar    1  ZINC000028372981   -0.1500
      8 C8        -12.2690   -2.2049   59.9737 C.ar    1  ZINC000028372981    0.0000
      9 C9        -13.6668   -2.2061   59.9914 C.ar    1  ZINC000028372981   -0.1600
     10 C10       -14.4225   -2.9032   58.9344 C.2     1  ZINC000028372981    0.5200
     11 O11       -15.5010   -2.4740   58.5750 O.2     1  ZINC000028372981   -0.5000
     12 O12       -13.9172   -4.0160   58.3670 O.3     1  ZINC000028372981   -0.3200
     13 C13       -14.4761   -4.4159   57.0879 C.3     1  ZINC000028372981    0.0700
     14 H14       -15.5450   -4.2027   57.0759 H       1  ZINC000028372981    0.1200
     15 C15       -14.2528   -5.9151   56.8800 C.3     1  ZINC000028372981   -0.1700
     16 C16       -13.7984   -3.6488   55.9817 C.2     1  ZINC000028372981    0.5200
     17 O17       -14.4083   -2.7943   55.3746 O.2     1  ZINC000028372981   -0.4900
     18 N18       -12.5147   -3.9126   55.6672 N.am    1  ZINC000028372981   -0.6600
     19 C19       -11.8855   -3.2004   54.6401 C.ar    1  ZINC000028372981    0.1500
     20 C20       -11.7865   -3.7527   53.3700 C.ar    1  ZINC000028372981   -0.1300
     21 C21       -11.1652   -3.0469   52.3581 C.ar    1  ZINC000028372981   -0.1000
     22 C22       -10.6427   -1.7916   52.6088 C.ar    1  ZINC000028372981   -0.1300
     23 C23       -10.7401   -1.2385   53.8727 C.ar    1  ZINC000028372981   -0.0700
     24 C24       -10.1696    0.1301   54.1414 C.3     1  ZINC000028372981   -0.1200
     25 C25       -11.3591   -1.9394   54.8889 C.ar    1  ZINC000028372981   -0.1200
     26 C26       -11.4639   -1.3365   56.2659 C.3     1  ZINC000028372981   -0.1200
     27 C27       -14.3429   -1.5463   61.0219 C.ar    1  ZINC000028372981   -0.0200
     28 C28       -13.6353   -0.8983   62.0052 C.ar    1  ZINC000028372981   -0.1800
     29 C29       -12.2363   -0.8917   61.9861 C.ar    1  ZINC000028372981    0.1900
     30 H30       -10.0367    1.6963   64.2931 H       1  ZINC000028372981    0.1000
     31 H31       -11.1257    1.5292   65.6912 H       1  ZINC000028372981    0.1000
     32 H32       -10.0181    0.2035   65.2622 H       1  ZINC000028372981    0.1000
     33 H33        -9.4551    0.3898   62.2566 H       1  ZINC000028372981    0.0900
     34 H34        -9.4342   -1.1107   63.2312 H       1  ZINC000028372981    0.0900
     35 H35        -9.6286   -0.8581   60.3373 H       1  ZINC000028372981    0.1000
     36 H36        -9.6057   -2.3592   61.3121 H       1  ZINC000028372981    0.1000
     37 H37       -11.7388   -2.7156   59.1836 H       1  ZINC000028372981    0.1400
     38 H38       -13.1838   -6.1283   56.8921 H       1  ZINC000028372981    0.0800
     39 H39       -14.7429   -6.4699   57.6802 H       1  ZINC000028372981    0.0800
     40 H40       -14.6723   -6.2153   55.9199 H       1  ZINC000028372981    0.0800
     41 H41       -12.0270   -4.5961   56.1528 H       1  ZINC000028372981    0.4100
     42 H42       -12.1988   -4.7312   53.1724 H       1  ZINC000028372981    0.1400
     43 H43       -11.0880   -3.4759   51.3700 H       1  ZINC000028372981    0.1300
     44 H44       -10.1577   -1.2416   51.8158 H       1  ZINC000028372981    0.1200
     45 H45       -10.9320    0.8855   53.9507 H       1  ZINC000028372981    0.0700
     46 H46        -9.8486    0.1922   55.1812 H       1  ZINC000028372981    0.0700
     47 H47        -9.3154    0.3027   53.4866 H       1  ZINC000028372981    0.0700
     48 H48       -12.3892   -0.7655   56.3432 H       1  ZINC000028372981    0.0700
     49 H49       -11.4643   -2.1315   57.0116 H       1  ZINC000028372981    0.0600
     50 H50       -10.6141   -0.6762   56.4391 H       1  ZINC000028372981    0.0800
     51 H51       -15.4226   -1.5463   61.0450 H       1  ZINC000028372981    0.1500
     52 H52       -14.1629   -0.3899   62.7987 H       1  ZINC000028372981    0.1500
@<TRIPOS>BOND
     1     1     2    1
     2     1    30    1
     3     1    31    1
     4     1    32    1
     5     2     3    2
     6     2     4   am
     7     4    29    1
     8     4     5    1
     9     5     6    1
    10     5    33    1
    11     5    34    1
    12     6     7    1
    13     6    35    1
    14     6    36    1
    15     7    29   ar
    16     7     8   ar
    17     8     9   ar
    18     8    37    1
    19     9    10    1
    20     9    27   ar
    21    10    11    2
    22    10    12    1
    23    12    13    1
    24    13    14    1
    25    13    15    1
    26    13    16    1
    27    15    38    1
    28    15    39    1
    29    15    40    1
    30    16    17    2
    31    16    18   am
    32    18    19    1
    33    18    41    1
    34    19    25   ar
    35    19    20   ar
    36    20    21   ar
    37    20    42    1
    38    21    22   ar
    39    21    43    1
    40    22    23   ar
    41    22    44    1
    42    23    24    1
    43    23    25   ar
    44    24    45    1
    45    24    46    1
    46    24    47    1
    47    25    26    1
    48    26    48    1
    49    26    49    1
    50    26    50    1
    51    27    28   ar
    52    27    51    1
    53    28    29   ar
    54    28    52    1
@<TRIPOS>SUBSTRUCTURE
     1 ZINC000028372981        1 TEMP              0 ****  ****    0 ROOT


##########                                Name:    ZINC000185598309
##########                DOCK_Rotatable_Bonds:                  14
##########                         Heavy_Atoms:                  25
##########                    Molecular_Weight:             347.457
##########                DOCK_Rotatable_Bonds:                  14
##########                       Formal_Charge:               -0.02
##########                     HBond_Acceptors:                   6
##########                        HBond_Donors:                   4
##########                         Heavy_Atoms:                  25
##########                          Grid_Score:          -35.212337
##########                     Grid_vdw_energy:          -35.418606
##########                      Grid_es_energy:            0.206268
##########           Internal_energy_repulsive:           10.458612

@<TRIPOS>MOLECULE
ZINC000185598309
 54 54 1 0 0
SMALL
USER_CHARGES


@<TRIPOS>ATOM
      1 C1         -7.5415    2.5363   51.4881 C.3     1  ZINC000185598309   -0.1300
      2 C2         -6.6060    2.7484   52.6504 C.2     1  ZINC000185598309   -0.1600
      3 C3         -7.0677    3.2064   53.7876 C.2     1  ZINC000185598309   -0.1600
      4 C4         -6.1326    3.4168   54.9506 C.3     1  ZINC000185598309   -0.0900
      5 C5         -6.9027    3.2458   56.2615 C.3     1  ZINC000185598309    0.1700
      6 H6         -7.7152    3.9711   56.3029 H       1  ZINC000185598309    0.1000
      7 C7         -5.9562    3.4720   57.4422 C.3     1  ZINC000185598309    0.0600
      8 O8         -4.8997    2.5111   57.3967 O.3     1  ZINC000185598309   -0.5700
      9 N9         -7.4541    1.8903   56.3307 N.am    1  ZINC000185598309   -0.7300
     10 C10        -8.4264    1.6027   57.2187 C.2     1  ZINC000185598309    0.7000
     11 O11        -8.8468    2.4688   57.9614 O.2     1  ZINC000185598309   -0.5900
     12 N12        -8.9326    0.3553   57.2833 N.am    1  ZINC000185598309   -0.7400
     13 C13        -9.9881    0.0425   58.2499 C.3     1  ZINC000185598309    0.1800
     14 C14       -10.1131   -1.4528   58.3906 C.ar    1  ZINC000185598309   -0.0900
     15 C15        -9.3256   -2.1286   59.3040 C.ar    1  ZINC000185598309   -0.1100
     16 C16        -9.4369   -3.5009   59.4358 C.ar    1  ZINC000185598309   -0.1000
     17 C17       -10.3360   -4.2003   58.6552 C.ar    1  ZINC000185598309   -0.1100
     18 C18       -11.1290   -3.5242   57.7369 C.ar    1  ZINC000185598309    0.1400
     19 N19       -12.0413   -4.2298   56.9447 N.am    1  ZINC000185598309   -0.6800
     20 C20       -13.3654   -4.0868   57.1520 C.2     1  ZINC000185598309    0.5200
     21 O21       -13.7660   -3.3466   58.0253 O.2     1  ZINC000185598309   -0.5200
     22 C22       -14.3480   -4.8468   56.2988 C.3     1  ZINC000185598309   -0.1100
     23 H23       -15.3543   -4.4688   56.4793 H       1  ZINC000185598309    0.1000
     24 C24       -14.2901   -6.3334   56.6555 C.3     1  ZINC000185598309   -0.1500
     25 C25       -13.9911   -4.6621   54.8225 C.3     1  ZINC000185598309   -0.1100
     26 C26       -14.1607   -3.1912   54.4370 C.3     1  ZINC000185598309   -0.1600
     27 C27       -11.0184   -2.1458   57.6107 C.ar    1  ZINC000185598309   -0.1300
     28 H28        -6.9805    2.1539   50.6353 H       1  ZINC000185598309    0.0600
     29 H29        -8.3117    1.8177   51.7681 H       1  ZINC000185598309    0.0600
     30 H30        -8.0086    3.4840   51.2202 H       1  ZINC000185598309    0.0600
     31 H31        -5.5549    2.5229   52.5459 H       1  ZINC000185598309    0.1100
     32 H32        -8.1185    3.4331   53.8918 H       1  ZINC000185598309    0.1100
     33 H33        -5.3257    2.6853   54.9050 H       1  ZINC000185598309    0.0900
     34 H34        -5.7145    4.4224   54.9032 H       1  ZINC000185598309    0.0800
     35 H35        -5.5366    4.4764   57.3841 H       1  ZINC000185598309    0.0500
     36 H36        -6.5075    3.3621   58.3760 H       1  ZINC000185598309    0.0500
     37 H37        -5.2012    1.5929   57.4321 H       1  ZINC000185598309    0.3800
     38 H38        -7.1195    1.1997   55.7373 H       1  ZINC000185598309    0.4000
     39 H39        -8.5979   -0.3353   56.6900 H       1  ZINC000185598309    0.4000
     40 H40        -9.7366    0.4786   59.2166 H       1  ZINC000185598309    0.0700
     41 H41       -10.9347    0.4549   57.9004 H       1  ZINC000185598309    0.0800
     42 H42        -8.6217   -1.5840   59.9157 H       1  ZINC000185598309    0.1300
     43 H43        -8.8198   -4.0261   60.1498 H       1  ZINC000185598309    0.1300
     44 H44       -10.4223   -5.2719   58.7583 H       1  ZINC000185598309    0.1300
     45 H45       -11.7209   -4.8218   56.2463 H       1  ZINC000185598309    0.4100
     46 H46       -14.5443   -6.4650   57.7072 H       1  ZINC000185598309    0.0600
     47 H47       -15.0007   -6.8832   56.0383 H       1  ZINC000185598309    0.0800
     48 H48       -13.2838   -6.7114   56.4750 H       1  ZINC000185598309    0.0600
     49 H49       -12.9566   -4.9638   54.6583 H       1  ZINC000185598309    0.0700
     50 H50       -14.6505   -5.2767   54.2097 H       1  ZINC000185598309    0.0700
     51 H51       -15.1952   -2.8895   54.6012 H       1  ZINC000185598309    0.0600
     52 H52       -13.5013   -2.5766   55.0497 H       1  ZINC000185598309    0.0600
     53 H53       -13.9065   -3.0597   53.3852 H       1  ZINC000185598309    0.0600
     54 H54       -11.6337   -1.6172   56.8976 H       1  ZINC000185598309    0.1300
@<TRIPOS>BOND
     1     1     2    1
     2     1    28    1
     3     1    29    1
     4     1    30    1
     5     2     3    2
     6     2    31    1
     7     3     4    1
     8     3    32    1
     9     4     5    1
    10     4    33    1
    11     4    34    1
    12     5     6    1
    13     5     7    1
    14     5     9    1
    15     7     8    1
    16     7    35    1
    17     7    36    1
    18     8    37    1
    19     9    10   am
    20     9    38    1
    21    10    11    2
    22    10    12   am
    23    12    13    1
    24    12    39    1
    25    13    14    1
    26    13    40    1
    27    13    41    1
    28    14    27   ar
    29    14    15   ar
    30    15    16   ar
    31    15    42    1
    32    16    17   ar
    33    16    43    1
    34    17    18   ar
    35    17    44    1
    36    18    19    1
    37    18    27   ar
    38    19    20   am
    39    19    45    1
    40    20    21    2
    41    20    22    1
    42    22    23    1
    43    22    24    1
    44    22    25    1
    45    24    46    1
    46    24    47    1
    47    24    48    1
    48    25    26    1
    49    25    49    1
    50    25    50    1
    51    26    51    1
    52    26    52    1
    53    26    53    1
    54    27    54    1
@<TRIPOS>SUBSTRUCTURE
     1 ZINC000185598309        1 TEMP              0 ****  ****    0 ROOT


##########                                Name:    ZINC001011267435
##########                DOCK_Rotatable_Bonds:                   7
##########                         Heavy_Atoms:                  24
##########                    Molecular_Weight:             331.458
##########                DOCK_Rotatable_Bonds:                   7
##########                       Formal_Charge:        -4.47035e-08
##########                     HBond_Acceptors:                   5
##########                        HBond_Donors:                   0
##########                         Heavy_Atoms:                  24
##########                          Grid_Score:          -35.202358
##########                     Grid_vdw_energy:          -35.363705
##########                      Grid_es_energy:            0.161345
##########           Internal_energy_repulsive:           40.125832

@<TRIPOS>MOLECULE
ZINC001011267435
 53 54 1 0 0
SMALL
USER_CHARGES


@<TRIPOS>ATOM
      1 C1        -11.7889   -1.7128   51.8919 C.3     1  ZINC001011267435   -0.1500
      2 C2        -11.8875   -2.3484   53.2801 C.3     1  ZINC001011267435   -0.1200
      3 C3        -12.7005   -3.6414   53.1924 C.3     1  ZINC001011267435   -0.0700
      4 C4        -12.9225   -4.1902   54.5783 C.ar    1  ZINC001011267435    0.1300
      5 C5        -11.8752   -4.2105   55.4787 C.ar    1  ZINC001011267435   -0.1200
      6 C6        -12.0938   -4.7223   56.7616 C.ar    1  ZINC001011267435   -0.0800
      7 C7        -11.0012   -4.7640   57.7611 C.2     1  ZINC001011267435    0.5600
      8 O8        -10.3743   -5.7906   57.9336 O.2     1  ZINC001011267435   -0.5200
      9 N9        -10.7023   -3.6631   58.4790 N.am    1  ZINC001011267435   -0.6100
     10 C10       -11.4559   -2.4164   58.2852 C.3     1  ZINC001011267435    0.0700
     11 C11       -12.0189   -1.9685   59.6398 C.3     1  ZINC001011267435    0.1000
     12 N12       -10.9338   -1.9935   60.6307 N.am    1  ZINC001011267435   -0.6200
     13 C13       -10.6355   -0.8930   61.3492 C.2     1  ZINC001011267435    0.5300
     14 O14        -9.7377   -0.9258   62.1640 O.2     1  ZINC001011267435   -0.5300
     15 C15       -11.4172    0.3783   61.1401 C.3     1  ZINC001011267435   -0.1100
     16 H16       -12.4745    0.1399   61.0247 H       1  ZINC001011267435    0.0900
     17 C17       -10.9134    1.0856   59.8804 C.3     1  ZINC001011267435   -0.1500
     18 C18       -11.2306    1.2966   62.3496 C.3     1  ZINC001011267435   -0.0800
     19 C19       -12.0158    2.5917   62.1328 C.3     1  ZINC001011267435   -0.1500
     20 C20       -11.7442    0.5934   63.6077 C.3     1  ZINC001011267435   -0.1500
     21 C21       -10.1802   -3.2403   60.8245 C.3     1  ZINC001011267435    0.0900
     22 C22        -9.6210   -3.6898   59.4739 C.3     1  ZINC001011267435    0.1000
     23 C23       -13.3723   -5.1931   57.0749 C.ar    1  ZINC001011267435   -0.1600
     24 C24       -14.3621   -5.1349   56.1125 C.ar    1  ZINC001011267435    0.1100
     25 N25       -14.1147   -4.6396   54.9165 N.ar    1  ZINC001011267435   -0.4600
     26 H26       -11.2971   -2.4057   51.2092 H       1  ZINC001011267435    0.0600
     27 H27       -12.7898   -1.4883   51.5232 H       1  ZINC001011267435    0.0500
     28 H28       -11.2096   -0.7916   51.9544 H       1  ZINC001011267435    0.0600
     29 H29       -10.8866   -2.5729   53.6488 H       1  ZINC001011267435    0.0700
     30 H30       -12.3793   -1.6555   53.9629 H       1  ZINC001011267435    0.0600
     31 H31       -13.6633   -3.4342   52.7252 H       1  ZINC001011267435    0.0800
     32 H32       -12.1566   -4.3729   52.5948 H       1  ZINC001011267435    0.0900
     33 H33       -10.9020   -3.8370   55.1961 H       1  ZINC001011267435    0.1400
     34 H34       -10.7932   -1.6457   57.8916 H       1  ZINC001011267435    0.0800
     35 H35       -12.2754   -2.5890   57.5876 H       1  ZINC001011267435    0.1100
     36 H36       -12.4137   -0.9560   59.5551 H       1  ZINC001011267435    0.1100
     37 H37       -12.8125   -2.6486   59.9491 H       1  ZINC001011267435    0.0700
     38 H38       -11.4206    2.0445   59.7746 H       1  ZINC001011267435    0.0800
     39 H39        -9.8388    1.2497   59.9610 H       1  ZINC001011267435    0.0600
     40 H40       -11.1217    0.4662   59.0080 H       1  ZINC001011267435    0.0600
     41 H41       -10.1725    1.5289   62.4696 H       1  ZINC001011267435    0.0800
     42 H42       -11.8829    3.2458   62.9944 H       1  ZINC001011267435    0.0600
     43 H43       -11.6499    3.0925   61.2364 H       1  ZINC001011267435    0.0600
     44 H44       -13.0740    2.3592   62.0128 H       1  ZINC001011267435    0.0600
     45 H45       -11.1848   -0.3292   63.7623 H       1  ZINC001011267435    0.0600
     46 H46       -11.6113    1.2476   64.4694 H       1  ZINC001011267435    0.0600
     47 H47       -12.8024    0.3610   63.4878 H       1  ZINC001011267435    0.0500
     48 H48        -9.3607   -3.0677   61.5221 H       1  ZINC001011267435    0.1000
     49 H49       -10.8429   -4.0109   61.2181 H       1  ZINC001011267435    0.0800
     50 H50        -9.2264   -4.7022   59.5600 H       1  ZINC001011267435    0.1100
     51 H51        -8.8274   -3.0106   59.1622 H       1  ZINC001011267435    0.0800
     52 H52       -13.5831   -5.5967   58.0543 H       1  ZINC001011267435    0.1500
     53 H53       -15.3529   -5.4965   56.3449 H       1  ZINC001011267435    0.1700
@<TRIPOS>BOND
     1     1     2    1
     2     1    26    1
     3     1    27    1
     4     1    28    1
     5     2     3    1
     6     2    29    1
     7     2    30    1
     8     3     4    1
     9     3    31    1
    10     3    32    1
    11     4    25   ar
    12     4     5   ar
    13     5     6   ar
    14     5    33    1
    15     6     7    1
    16     6    23   ar
    17     7     8    2
    18     7     9   am
    19     9    22    1
    20     9    10    1
    21    10    11    1
    22    10    34    1
    23    10    35    1
    24    11    12    1
    25    11    36    1
    26    11    37    1
    27    12    13   am
    28    12    21    1
    29    13    14    2
    30    13    15    1
    31    15    16    1
    32    15    17    1
    33    15    18    1
    34    17    38    1
    35    17    39    1
    36    17    40    1
    37    18    19    1
    38    18    20    1
    39    18    41    1
    40    19    42    1
    41    19    43    1
    42    19    44    1
    43    20    45    1
    44    20    46    1
    45    20    47    1
    46    21    22    1
    47    21    48    1
    48    21    49    1
    49    22    50    1
    50    22    51    1
    51    23    24   ar
    52    23    52    1
    53    24    25   ar
    54    24    53    1
@<TRIPOS>SUBSTRUCTURE
     1 ZINC001011267435        1 TEMP              0 ****  ****    0 ROOT


##########                                Name:    ZINC000937331732
##########                DOCK_Rotatable_Bonds:                   6
##########                         Heavy_Atoms:                  24
##########                    Molecular_Weight:              333.35
##########                DOCK_Rotatable_Bonds:                   6
##########                       Formal_Charge:          -0.0299999
##########                     HBond_Acceptors:                  10
##########                        HBond_Donors:                   1
##########                         Heavy_Atoms:                  24
##########                          Grid_Score:          -35.170219
##########                     Grid_vdw_energy:          -32.888298
##########                      Grid_es_energy:           -2.281921
##########           Internal_energy_repulsive:           26.481030

@<TRIPOS>MOLECULE
ZINC000937331732
 43 45 1 0 0
SMALL
USER_CHARGES


@<TRIPOS>ATOM
      1 C1        -13.6320   -5.4250   55.7625 C.3     1  ZINC000937331732    0.0600
      2 N2        -12.7409   -4.2781   55.5701 N.am    1  ZINC000937331732   -0.6100
      3 C3        -11.7050   -4.0816   56.4095 C.2     1  ZINC000937331732    0.5000
      4 O4        -10.9664   -3.1330   56.2494 O.2     1  ZINC000937331732   -0.5200
      5 C5        -11.4643   -5.0404   57.5469 C.3     1  ZINC000937331732    0.1500
      6 N6        -10.6402   -4.3894   58.5683 N.am    1  ZINC000937331732   -0.4400
      7 N7         -9.3461   -4.7644   58.9550 N.2     1  ZINC000937331732   -0.2800
      8 C8         -8.9509   -3.9516   59.8810 C.2     1  ZINC000937331732    0.2600
      9 N9         -9.9483   -3.0394   60.1257 N.am    1  ZINC000937331732   -0.5600
     10 C10        -9.8936   -1.9504   61.1041 C.3     1  ZINC000937331732    0.1000
     11 C11       -10.9840   -3.3138   59.3074 C.2     1  ZINC000937331732    0.6500
     12 O12       -12.0390   -2.7075   59.2510 O.2     1  ZINC000937331732   -0.5500
     13 C13       -12.9760   -3.3450   54.4654 C.3     1  ZINC000937331732    0.1300
     14 H14       -13.8294   -3.6647   53.8675 H       1  ZINC000937331732    0.1200
     15 C15       -13.1891   -1.9041   54.9999 C.3     1  ZINC000937331732   -0.1500
     16 C16       -12.7375   -1.0526   53.7871 C.3     1  ZINC000937331732    0.1000
     17 N17       -11.5974   -1.7896   53.2123 N.am    1  ZINC000937331732   -0.6000
     18 C18       -10.6123   -1.2539   52.4646 C.2     1  ZINC000937331732    0.6200
     19 O19        -9.7183   -1.9604   52.0402 O.2     1  ZINC000937331732   -0.5400
     20 C20       -10.6186    0.1888   52.1616 C.2     1  ZINC000937331732    0.1400
     21 N21       -11.6775    0.9075   51.8544 N.2     1  ZINC000937331732   -0.4400
     22 C22       -11.3029    2.1678   51.6467 C.2     1  ZINC000937331732   -0.0300
     23 C23        -9.9620    2.2501   51.8284 C.2     1  ZINC000937331732   -0.0200
     24 N24        -9.5267    1.0107   52.1572 N.pl3   1  ZINC000937331732   -0.5200
     25 C25       -11.7141   -3.2094   53.5875 C.3     1  ZINC000937331732    0.1000
     26 H26       -14.4543   -5.1402   56.4189 H       1  ZINC000937331732    0.0700
     27 H27       -14.0299   -5.7418   54.7983 H       1  ZINC000937331732    0.0800
     28 H28       -13.0750   -6.2464   56.2133 H       1  ZINC000937331732    0.0800
     29 H29       -12.4191   -5.3337   57.9832 H       1  ZINC000937331732    0.1300
     30 H30       -10.9484   -5.9249   57.1735 H       1  ZINC000937331732    0.1300
     31 H31        -7.9937   -3.9850   60.3801 H       1  ZINC000937331732    0.2300
     32 H32        -8.9319   -1.9706   61.6168 H       1  ZINC000937331732    0.1000
     33 H33       -10.0122   -0.9955   60.5919 H       1  ZINC000937331732    0.0800
     34 H34       -10.6957   -2.0748   61.8315 H       1  ZINC000937331732    0.0800
     35 H35       -14.2387   -1.7254   55.2336 H       1  ZINC000937331732    0.0900
     36 H36       -12.5589   -1.7123   55.8684 H       1  ZINC000937331732    0.0800
     37 H37       -13.5440   -0.9728   53.0583 H       1  ZINC000937331732    0.0800
     38 H38       -12.4222   -0.0622   54.1154 H       1  ZINC000937331732    0.1100
     39 H39       -11.9559    2.9854   51.3791 H       1  ZINC000937331732    0.1800
     40 H40        -9.3553    3.1383   51.7325 H       1  ZINC000937331732    0.1900
     41 H41        -8.6111    0.7535   52.3480 H       1  ZINC000937331732    0.4300
     42 H42       -10.8356   -3.5162   54.1551 H       1  ZINC000937331732    0.0800
     43 H43       -11.8120   -3.8227   52.6917 H       1  ZINC000937331732    0.0800
@<TRIPOS>BOND
     1     1     2    1
     2     1    26    1
     3     1    27    1
     4     1    28    1
     5     2     3   am
     6     2    13    1
     7     3     4    2
     8     3     5    1
     9     5     6    1
    10     5    29    1
    11     5    30    1
    12     6    11   am
    13     6     7    1
    14     7     8    2
    15     8     9    1
    16     8    31    1
    17     9    10    1
    18     9    11   am
    19    10    32    1
    20    10    33    1
    21    10    34    1
    22    11    12    2
    23    13    14    1
    24    13    25    1
    25    13    15    1
    26    15    16    1
    27    15    35    1
    28    15    36    1
    29    16    17    1
    30    16    37    1
    31    16    38    1
    32    17    18   am
    33    17    25    1
    34    18    19    2
    35    18    20    1
    36    20    24    1
    37    20    21    2
    38    21    22    1
    39    22    23    2
    40    22    39    1
    41    23    24    1
    42    23    40    1
    43    24    41    1
    44    25    42    1
    45    25    43    1
@<TRIPOS>SUBSTRUCTURE
     1 ZINC000937331732        1 TEMP              0 ****  ****    0 ROOT


##########                                Name:    ZINC000919225759
##########                DOCK_Rotatable_Bonds:                   4
##########                         Heavy_Atoms:                  27
##########                    Molecular_Weight:             375.295
##########                DOCK_Rotatable_Bonds:                   4
##########                       Formal_Charge:                0.04
##########                     HBond_Acceptors:                  11
##########                        HBond_Donors:                   0
##########                         Heavy_Atoms:                  27
##########                          Grid_Score:          -35.154408
##########                     Grid_vdw_energy:          -35.046513
##########                      Grid_es_energy:           -0.107895
##########           Internal_energy_repulsive:            7.559643

@<TRIPOS>MOLECULE
ZINC000919225759
 40 41 1 0 0
SMALL
USER_CHARGES


@<TRIPOS>ATOM
      1 C1        -14.4759   -3.1877   56.1801 C.3     1  ZINC000919225759   -0.1500
      2 C2        -13.3173   -3.1134   57.1410 C.ar    1  ZINC000919225759    0.0900
      3 C3        -12.0098   -3.0448   56.6566 C.ar    1  ZINC000919225759   -0.1200
      4 C4        -11.7569   -3.0449   55.2011 C.2     1  ZINC000919225759    0.5200
      5 O5        -11.1578   -3.9689   54.6887 O.2     1  ZINC000919225759   -0.4700
      6 O6        -12.1908   -2.0199   54.4421 O.3     1  ZINC000919225759   -0.3400
      7 C7        -11.6871   -1.9472   53.0823 C.3     1  ZINC000919225759    0.1400
      8 H8        -11.3004   -2.9222   52.7854 H       1  ZINC000919225759    0.1100
      9 C9        -12.8210   -1.5398   52.1394 C.3     1  ZINC000919225759   -0.1700
     10 C10       -10.5819   -0.9253   53.0099 C.ar    1  ZINC000919225759   -0.1000
     11 C11       -10.6712    0.2422   53.7443 C.ar    1  ZINC000919225759   -0.0400
     12 C12        -9.6573    1.1798   53.6779 C.ar    1  ZINC000919225759   -0.1100
     13 C13        -8.5543    0.9495   52.8776 C.ar    1  ZINC000919225759   -0.0500
     14 C14        -8.4645   -0.2189   52.1438 C.ar    1  ZINC000919225759   -0.0400
     15 N15        -7.2835   -0.4653   51.2863 N.pl3   1  ZINC000919225759    0.0300
     16 O16        -6.3907    0.3610   51.2272 O.2     1  ZINC000919225759   -0.1500
     17 O17        -7.2044   -1.4946   50.6398 O.2     1  ZINC000919225759   -0.1500
     18 C18        -9.4761   -1.1581   52.2134 C.ar    1  ZINC000919225759   -0.0400
     19 C19       -10.9421   -2.9756   57.5540 C.ar    1  ZINC000919225759    0.0500
     20 C20       -11.1855   -2.9756   58.9116 C.ar    1  ZINC000919225759   -0.0600
     21 N21       -10.0551   -2.9018   59.8644 N.pl3   1  ZINC000919225759    0.0300
     22 O22        -8.9116   -2.8414   59.4492 O.2     1  ZINC000919225759   -0.1300
     23 O23       -10.2684   -2.9018   61.0635 O.2     1  ZINC000919225759   -0.1300
     24 C24       -12.4840   -3.0438   59.3850 C.ar    1  ZINC000919225759    0.0400
     25 C25       -13.5467   -3.1072   58.5014 C.ar    1  ZINC000919225759   -0.0500
     26 N26       -14.9324   -3.1793   59.0169 N.pl3   1  ZINC000919225759    0.0200
     27 O27       -15.1771   -3.8307   60.0165 O.2     1  ZINC000919225759   -0.1300
     28 O28       -15.8278   -2.5872   58.4415 O.2     1  ZINC000919225759   -0.1200
     29 H29       -14.7357   -2.1833   55.8459 H       1  ZINC000919225759    0.1200
     30 H30       -14.1960   -3.7958   55.3198 H       1  ZINC000919225759    0.1200
     31 H31       -15.3338   -3.6378   56.6795 H       1  ZINC000919225759    0.0900
     32 H32       -13.2077   -0.5649   52.4361 H       1  ZINC000919225759    0.0700
     33 H33       -12.4428   -1.4852   51.1185 H       1  ZINC000919225759    0.0900
     34 H34       -13.6203   -2.2789   52.1917 H       1  ZINC000919225759    0.0700
     35 H35       -11.5331    0.4222   54.3696 H       1  ZINC000919225759    0.1500
     36 H36        -9.7273    2.0924   54.2512 H       1  ZINC000919225759    0.1500
     37 H37        -7.7625    1.6822   52.8252 H       1  ZINC000919225759    0.1600
     38 H38        -9.4060   -2.0707   51.6401 H       1  ZINC000919225759    0.1600
     39 H39        -9.9281   -2.9228   57.1860 H       1  ZINC000919225759    0.1900
     40 H40       -12.6690   -3.0437   60.4491 H       1  ZINC000919225759    0.1900
@<TRIPOS>BOND
     1     1     2    1
     2     1    29    1
     3     1    30    1
     4     1    31    1
     5     2    25   ar
     6     2     3   ar
     7     3     4    1
     8     3    19   ar
     9     4     5    2
    10     4     6    1
    11     6     7    1
    12     7     8    1
    13     7     9    1
    14     7    10    1
    15     9    32    1
    16     9    33    1
    17     9    34    1
    18    10    18   ar
    19    10    11   ar
    20    11    12   ar
    21    11    35    1
    22    12    13   ar
    23    12    36    1
    24    13    14   ar
    25    13    37    1
    26    14    15    1
    27    14    18   ar
    28    15    16    2
    29    15    17    2
    30    18    38    1
    31    19    20   ar
    32    19    39    1
    33    20    21    1
    34    20    24   ar
    35    21    22    2
    36    21    23    2
    37    24    25   ar
    38    24    40    1
    39    25    26    1
    40    26    27    2
    41    26    28    2
@<TRIPOS>SUBSTRUCTURE
     1 ZINC000919225759        1 TEMP              0 ****  ****    0 ROOT


##########                                Name:    ZINC000533131987
##########                DOCK_Rotatable_Bonds:                  11
##########                         Heavy_Atoms:                  30
##########                    Molecular_Weight:             419.403
##########                DOCK_Rotatable_Bonds:                  11
##########                       Formal_Charge:                0.01
##########                     HBond_Acceptors:                   9
##########                        HBond_Donors:                   3
##########                         Heavy_Atoms:                  30
##########                          Grid_Score:          -35.146889
##########                     Grid_vdw_energy:          -33.397396
##########                      Grid_es_energy:           -1.749493
##########           Internal_energy_repulsive:           26.280161

@<TRIPOS>MOLECULE
ZINC000533131987
 50 52 1 0 0
SMALL
USER_CHARGES


@<TRIPOS>ATOM
      1 O1         -9.0390   -0.2810   56.3266 O.2     1  ZINC000533131987   -0.5700
      2 C2         -9.4582    0.4396   57.2116 C.2     1  ZINC000533131987    0.7100
      3 N3         -9.3546    1.7785   57.0963 N.am    1  ZINC000533131987   -0.7400
      4 C4         -8.7316    2.3652   55.9074 C.3     1  ZINC000533131987    0.1400
      5 C5         -9.8181    2.9147   54.9808 C.3     1  ZINC000533131987   -0.0900
      6 H6        -10.6607    2.2234   54.9590 H       1  ZINC000533131987    0.0900
      7 C7        -10.2883    4.2759   55.4972 C.3     1  ZINC000533131987    0.0800
      8 O8        -11.6123    4.1551   56.0213 O.3     1  ZINC000533131987   -0.5600
      9 C9         -9.2517    3.0730   53.5683 C.3     1  ZINC000533131987   -0.0900
     10 C10        -8.9004    1.7168   53.0130 C.ar    1  ZINC000533131987    0.0000
     11 C11        -9.7683    0.6546   53.1828 C.ar    1  ZINC000533131987   -0.1100
     12 C12        -9.4459   -0.5896   52.6734 C.ar    1  ZINC000533131987   -0.0800
     13 C13        -8.2561   -0.7712   51.9940 C.ar    1  ZINC000533131987   -0.1300
     14 C14        -7.3883    0.2915   51.8235 C.ar    1  ZINC000533131987   -0.0700
     15 C15        -7.7124    1.5364   52.3290 C.ar    1  ZINC000533131987   -0.1700
     16 C16        -6.7666    2.6948   52.1430 C.3     1  ZINC000533131987    0.5100
     17 F17        -5.7274    2.3155   51.2868 F       1  ZINC000533131987   -0.1800
     18 F18        -7.4578    3.7766   51.5868 F       1  ZINC000533131987   -0.1700
     19 F19        -6.2367    3.0679   53.3829 F       1  ZINC000533131987   -0.1800
     20 N20       -10.0314   -0.1002   58.3055 N.am    1  ZINC000533131987   -0.6900
     21 C21       -10.1389   -1.4906   58.4252 C.ar    1  ZINC000533131987    0.1600
     22 C22        -9.2961   -2.1808   59.2878 C.ar    1  ZINC000533131987   -0.1000
     23 C23        -9.3983   -3.5542   59.4098 C.ar    1  ZINC000533131987   -0.1000
     24 C24       -10.3380   -4.2485   58.6758 C.ar    1  ZINC000533131987   -0.1000
     25 C25       -11.1894   -3.5642   57.8063 C.ar    1  ZINC000533131987    0.0000
     26 C26       -12.1975   -4.3056   57.0190 C.2     1  ZINC000533131987    0.2300
     27 N27       -12.9490   -5.2846   57.4645 N.2     1  ZINC000533131987   -0.4700
     28 C28       -13.7393   -5.7073   56.4662 C.2     1  ZINC000533131987   -0.0400
     29 C29       -13.4623   -4.9647   55.3788 C.2     1  ZINC000533131987   -0.0700
     30 O30       -12.5020   -4.0861   55.7282 O.3     1  ZINC000533131987   -0.2000
     31 C31       -11.0901   -2.1784   57.6877 C.ar    1  ZINC000533131987   -0.1000
     32 H32        -9.6926    2.3535   57.8006 H       1  ZINC000533131987    0.4000
     33 H33        -8.0667    3.1750   56.2077 H       1  ZINC000533131987    0.0700
     34 H34        -8.1589    1.6006   55.3824 H       1  ZINC000533131987    0.0800
     35 H35        -9.6160    4.6180   56.2840 H       1  ZINC000533131987    0.0400
     36 H36       -10.2858    4.9957   54.6788 H       1  ZINC000533131987    0.0600
     37 H37       -12.2732    3.8963   55.3644 H       1  ZINC000533131987    0.3800
     38 H38        -9.9973    3.5454   52.9287 H       1  ZINC000533131987    0.0800
     39 H39        -8.3568    3.6943   53.6032 H       1  ZINC000533131987    0.0900
     40 H40       -10.6980    0.7965   53.7136 H       1  ZINC000533131987    0.1300
     41 H41       -10.1238   -1.4198   52.8067 H       1  ZINC000533131987    0.1300
     42 H42        -8.0039   -1.7433   51.5968 H       1  ZINC000533131987    0.1300
     43 H43        -6.4584    0.1496   51.2929 H       1  ZINC000533131987    0.1300
     44 H44       -10.3694    0.4748   59.0097 H       1  ZINC000533131987    0.4100
     45 H45        -8.5585   -1.6426   59.8647 H       1  ZINC000533131987    0.1500
     46 H46        -8.7403   -4.0853   60.0815 H       1  ZINC000533131987    0.1400
     47 H47       -10.4144   -5.3214   58.7735 H       1  ZINC000533131987    0.1300
     48 H48       -14.4680   -6.5021   56.5248 H       1  ZINC000533131987    0.1900
     49 H49       -13.9263   -5.0536   54.4076 H       1  ZINC000533131987    0.2200
     50 H50       -11.7461   -1.6436   57.0168 H       1  ZINC000533131987    0.1400
@<TRIPOS>BOND
     1     1     2    2
     2     2     3   am
     3     2    20   am
     4     3     4    1
     5     3    32    1
     6     4     5    1
     7     4    33    1
     8     4    34    1
     9     5     6    1
    10     5     7    1
    11     5     9    1
    12     7     8    1
    13     7    35    1
    14     7    36    1
    15     8    37    1
    16     9    10    1
    17     9    38    1
    18     9    39    1
    19    10    15   ar
    20    10    11   ar
    21    11    12   ar
    22    11    40    1
    23    12    13   ar
    24    12    41    1
    25    13    14   ar
    26    13    42    1
    27    14    15   ar
    28    14    43    1
    29    15    16    1
    30    16    17    1
    31    16    18    1
    32    16    19    1
    33    20    21    1
    34    20    44    1
    35    21    31   ar
    36    21    22   ar
    37    22    23   ar
    38    22    45    1
    39    23    24   ar
    40    23    46    1
    41    24    25   ar
    42    24    47    1
    43    25    26    1
    44    25    31   ar
    45    26    30    1
    46    26    27    2
    47    27    28    1
    48    28    29    2
    49    28    48    1
    50    29    30    1
    51    29    49    1
    52    31    50    1
@<TRIPOS>SUBSTRUCTURE
     1 ZINC000533131987        1 TEMP              0 ****  ****    0 ROOT


##########                                Name:    ZINC000774689801
##########                DOCK_Rotatable_Bonds:                   4
##########                         Heavy_Atoms:                  24
##########                    Molecular_Weight:             347.395
##########                DOCK_Rotatable_Bonds:                   4
##########                       Formal_Charge:         -0.00999961
##########                     HBond_Acceptors:                   8
##########                        HBond_Donors:                   1
##########                         Heavy_Atoms:                  24
##########                          Grid_Score:          -35.135063
##########                     Grid_vdw_energy:          -33.080463
##########                      Grid_es_energy:           -2.054602
##########           Internal_energy_repulsive:            8.842649

@<TRIPOS>MOLECULE
ZINC000774689801
 41 44 1 0 0
SMALL
USER_CHARGES


@<TRIPOS>ATOM
      1 C1        -12.2282   -1.5904   58.7842 C.3     1  ZINC000774689801   -0.1200
      2 C2        -11.0978   -2.1498   59.6090 C.2     1  ZINC000774689801    0.0600
      3 C3        -10.4501   -3.2752   59.2671 C.2     1  ZINC000774689801   -0.2800
      4 C4        -10.7480   -4.0827   58.0824 C.2     1  ZINC000774689801    0.5500
      5 O5        -10.9098   -5.2834   58.1898 O.2     1  ZINC000774689801   -0.4900
      6 O6        -10.8431   -3.4949   56.8719 O.3     1  ZINC000774689801   -0.3400
      7 C7        -11.6295   -4.1841   55.8644 C.3     1  ZINC000774689801    0.0900
      8 C8        -12.9096   -3.3932   55.5876 C.3     1  ZINC000774689801   -0.1300
      9 H9        -12.7993   -2.3615   55.9215 H       1  ZINC000774689801    0.1200
     10 C10       -13.2599   -3.4402   54.0822 C.3     1  ZINC000774689801   -0.1300
     11 C11       -14.8028   -3.5085   54.1199 C.3     1  ZINC000774689801    0.1000
     12 N12       -15.1368   -4.1043   55.4189 N.am    1  ZINC000774689801   -0.7400
     13 C13       -14.0929   -4.0462   56.2675 C.2     1  ZINC000774689801    0.5200
     14 O14       -14.1004   -4.4602   57.4074 O.2     1  ZINC000774689801   -0.5100
     15 S15        -9.1956   -3.6427   60.4388 S.3     1  ZINC000774689801    0.3000
     16 C16        -9.5973   -2.2168   61.3884 C.2     1  ZINC000774689801    0.1000
     17 C17       -10.6507   -1.5309   60.7748 C.2     1  ZINC000774689801   -0.2500
     18 C18       -11.1220   -0.3005   61.4385 C.2     1  ZINC000774689801    0.5700
     19 O19       -12.0361    0.3505   60.9649 O.2     1  ZINC000774689801   -0.5000
     20 N20       -10.5173    0.0895   62.5852 N.am    1  ZINC000774689801   -0.5500
     21 C21       -10.7995    1.2687   63.4219 C.3     1  ZINC000774689801    0.0900
     22 C22       -10.1411    0.9764   64.7860 C.3     1  ZINC000774689801   -0.1300
     23 C23        -9.0088    0.0051   64.3885 C.3     1  ZINC000774689801   -0.0800
     24 C24        -9.5022   -0.6449   63.1066 C.2     1  ZINC000774689801    0.4200
     25 N25        -9.0710   -1.7336   62.5269 N.2     1  ZINC000774689801   -0.5100
     26 H26       -11.8280   -0.9064   58.0358 H       1  ZINC000774689801    0.0800
     27 H27       -12.7535   -2.4058   58.2870 H       1  ZINC000774689801    0.1000
     28 H28       -12.9207   -1.0541   59.4330 H       1  ZINC000774689801    0.0800
     29 H29       -11.0490   -4.2691   54.9458 H       1  ZINC000774689801    0.0900
     30 H30       -11.8884   -5.1800   56.2241 H       1  ZINC000774689801    0.0800
     31 H31       -12.9218   -2.5368   53.5747 H       1  ZINC000774689801    0.1000
     32 H32       -12.8414   -4.3299   53.6119 H       1  ZINC000774689801    0.0900
     33 H33       -15.2267   -2.5071   54.0439 H       1  ZINC000774689801    0.0800
     34 H34       -15.1723   -4.1377   53.3101 H       1  ZINC000774689801    0.0800
     35 H35       -15.9996   -4.4892   55.6388 H       1  ZINC000774689801    0.4100
     36 H36       -10.3610    2.1611   62.9754 H       1  ZINC000774689801    0.1000
     37 H37       -11.8752    1.3964   63.5425 H       1  ZINC000774689801    0.1000
     38 H38        -9.7364    1.8876   65.2268 H       1  ZINC000774689801    0.1100
     39 H39       -10.8463    0.4965   65.4645 H       1  ZINC000774689801    0.0900
     40 H40        -8.0838    0.5523   64.2066 H       1  ZINC000774689801    0.1200
     41 H41        -8.8615   -0.7463   65.1644 H       1  ZINC000774689801    0.1200
@<TRIPOS>BOND
     1     1     2    1
     2     1    26    1
     3     1    27    1
     4     1    28    1
     5     2    17    1
     6     2     3    2
     7     3     4    1
     8     3    15    1
     9     4     5    2
    10     4     6    1
    11     6     7    1
    12     7     8    1
    13     7    29    1
    14     7    30    1
    15     8     9    1
    16     8    13    1
    17     8    10    1
    18    10    11    1
    19    10    31    1
    20    10    32    1
    21    11    12    1
    22    11    33    1
    23    11    34    1
    24    12    13   am
    25    12    35    1
    26    13    14    2
    27    15    16    1
    28    16    25    1
    29    16    17    2
    30    17    18    1
    31    18    19    2
    32    18    20   am
    33    20    24    1
    34    20    21    1
    35    21    22    1
    36    21    36    1
    37    21    37    1
    38    22    23    1
    39    22    38    1
    40    22    39    1
    41    23    24    1
    42    23    40    1
    43    23    41    1
    44    24    25    2
@<TRIPOS>SUBSTRUCTURE
     1 ZINC000774689801        1 TEMP              0 ****  ****    0 ROOT


##########                                Name:    ZINC000532153088
##########                DOCK_Rotatable_Bonds:                  11
##########                         Heavy_Atoms:                  29
##########                    Molecular_Weight:             402.484
##########                DOCK_Rotatable_Bonds:                  11
##########                       Formal_Charge:          -0.0200009
##########                     HBond_Acceptors:                   6
##########                        HBond_Donors:                   1
##########                         Heavy_Atoms:                  29
##########                          Grid_Score:          -35.131878
##########                     Grid_vdw_energy:          -35.592091
##########                      Grid_es_energy:            0.460213
##########           Internal_energy_repulsive:           20.788448

@<TRIPOS>MOLECULE
ZINC000532153088
 57 59 1 0 0
SMALL
USER_CHARGES


@<TRIPOS>ATOM
      1 C1        -17.1915   -1.3567   50.6392 C.3     1  ZINC000532153088   -0.1800
      2 C2        -16.1262   -1.9309   49.7031 C.3     1  ZINC000532153088    0.0800
      3 C3        -16.2400   -1.2642   48.3308 C.3     1  ZINC000532153088   -0.1500
      4 O4        -14.8288   -1.6814   50.2478 O.3     1  ZINC000532153088   -0.3800
      5 C5        -14.6172   -2.2641   51.5354 C.3     1  ZINC000532153088    0.1000
      6 C6        -13.2245   -1.9394   52.0108 C.ar    1  ZINC000532153088   -0.0700
      7 C7        -12.5980   -0.7859   51.5782 C.ar    1  ZINC000532153088   -0.1000
      8 C8        -11.3203   -0.4881   52.0145 C.ar    1  ZINC000532153088   -0.1100
      9 C9        -10.6697   -1.3435   52.8835 C.ar    1  ZINC000532153088   -0.1200
     10 C10       -11.2969   -2.4970   53.3171 C.ar    1  ZINC000532153088   -0.1000
     11 C11       -12.5758   -2.7925   52.8843 C.ar    1  ZINC000532153088   -0.1100
     12 C12       -13.2594   -4.0497   53.3568 C.3     1  ZINC000532153088    0.1600
     13 N13       -12.7620   -4.4052   54.6882 N.am    1  ZINC000532153088   -0.7300
     14 C14       -13.5877   -4.9806   55.5845 C.2     1  ZINC000532153088    0.5100
     15 O15       -14.7429   -5.2028   55.2895 O.2     1  ZINC000532153088   -0.5000
     16 C16       -13.0756   -5.3480   56.9534 C.3     1  ZINC000532153088    0.0300
     17 N17       -13.0311   -4.1470   57.7982 N.3     1  ZINC000532153088   -0.4800
     18 C18       -11.9072   -3.2795   57.4212 C.3     1  ZINC000532153088    0.1000
     19 C19       -11.1736   -2.8401   58.6620 C.ar    1  ZINC000532153088   -0.1300
     20 C20       -11.4356   -1.6021   59.2173 C.ar    1  ZINC000532153088   -0.0600
     21 C21       -10.7638   -1.1979   60.3557 C.ar    1  ZINC000532153088   -0.1700
     22 C22        -9.8275   -2.0332   60.9410 C.ar    1  ZINC000532153088    0.1300
     23 F23        -9.1714   -1.6381   62.0540 F       1  ZINC000532153088   -0.1300
     24 C24        -9.5643   -3.2737   60.3856 C.ar    1  ZINC000532153088   -0.2000
     25 C25       -10.2413   -3.6795   59.2488 C.ar    1  ZINC000532153088    0.1600
     26 F26        -9.9854   -4.8898   58.7057 F       1  ZINC000532153088   -0.1100
     27 C27       -14.3035   -3.4151   57.7401 C.3     1  ZINC000532153088    0.0200
     28 C28       -15.5433   -4.1074   58.3097 C.3     1  ZINC000532153088   -0.2200
     29 C29       -14.9056   -2.9387   59.0635 C.3     1  ZINC000532153088   -0.1700
     30 H30       -18.1810   -1.5470   50.2237 H       1  ZINC000532153088    0.0700
     31 H31       -17.1103   -1.8317   51.6168 H       1  ZINC000532153088    0.0600
     32 H32       -17.0419   -0.2820   50.7439 H       1  ZINC000532153088    0.0700
     33 H33       -16.2757   -3.0056   49.5984 H       1  ZINC000532153088    0.0600
     34 H34       -16.0904   -0.1895   48.4355 H       1  ZINC000532153088    0.0600
     35 H35       -15.4811   -1.6733   47.6640 H       1  ZINC000532153088    0.0600
     36 H36       -17.2296   -1.4545   47.9153 H       1  ZINC000532153088    0.0700
     37 H37       -15.3448   -1.8620   52.2403 H       1  ZINC000532153088    0.0600
     38 H38       -14.7354   -3.3457   51.4686 H       1  ZINC000532153088    0.0600
     39 H39       -13.1063   -0.1175   50.8991 H       1  ZINC000532153088    0.1300
     40 H40       -10.8304    0.4129   51.6759 H       1  ZINC000532153088    0.1200
     41 H41        -9.6714   -1.1112   53.2238 H       1  ZINC000532153088    0.1300
     42 H42       -10.7884   -3.1655   53.9959 H       1  ZINC000532153088    0.1300
     43 H43       -14.3355   -3.8824   53.4037 H       1  ZINC000532153088    0.0800
     44 H44       -13.0479   -4.8618   52.6613 H       1  ZINC000532153088    0.0800
     45 H45       -11.8383   -4.2264   54.9245 H       1  ZINC000532153088    0.4000
     46 H46       -13.7402   -6.0849   57.4044 H       1  ZINC000532153088    0.0700
     47 H47       -12.0735   -5.7678   56.8658 H       1  ZINC000532153088    0.1100
     48 H48       -11.2258   -3.8292   56.7718 H       1  ZINC000532153088    0.0900
     49 H49       -12.2851   -2.4039   56.8933 H       1  ZINC000532153088    0.0500
     50 H50       -12.1654   -0.9496   58.7612 H       1  ZINC000532153088    0.1400
     51 H51       -10.9690   -0.2300   60.7887 H       1  ZINC000532153088    0.1400
     52 H52        -8.8341   -3.9260   60.8415 H       1  ZINC000532153088    0.1500
     53 H53       -14.4395   -2.7772   56.8668 H       1  ZINC000532153088    0.1200
     54 H54       -16.4953   -3.9251   57.8111 H       1  ZINC000532153088    0.1000
     55 H55       -15.4149   -5.1060   58.7276 H       1  ZINC000532153088    0.1000
     56 H56       -14.3575   -3.1684   59.9773 H       1  ZINC000532153088    0.1000
     57 H57       -15.4380   -1.9876   59.0608 H       1  ZINC000532153088    0.1000
@<TRIPOS>BOND
     1     1     2    1
     2     1    30    1
     3     1    31    1
     4     1    32    1
     5     2     3    1
     6     2     4    1
     7     2    33    1
     8     3    34    1
     9     3    35    1
    10     3    36    1
    11     4     5    1
    12     5     6    1
    13     5    37    1
    14     5    38    1
    15     6    11   ar
    16     6     7   ar
    17     7     8   ar
    18     7    39    1
    19     8     9   ar
    20     8    40    1
    21     9    10   ar
    22     9    41    1
    23    10    11   ar
    24    10    42    1
    25    11    12    1
    26    12    13    1
    27    12    43    1
    28    12    44    1
    29    13    14   am
    30    13    45    1
    31    14    15    2
    32    14    16    1
    33    16    17    1
    34    16    46    1
    35    16    47    1
    36    17    18    1
    37    17    27    1
    38    18    19    1
    39    18    48    1
    40    18    49    1
    41    19    25   ar
    42    19    20   ar
    43    20    21   ar
    44    20    50    1
    45    21    22   ar
    46    21    51    1
    47    22    23    1
    48    22    24   ar
    49    24    25   ar
    50    24    52    1
    51    25    26    1
    52    27    29    1
    53    27    28    1
    54    27    53    1
    55    28    29    1
    56    28    54    1
    57    28    55    1
    58    29    56    1
    59    29    57    1
@<TRIPOS>SUBSTRUCTURE
     1 ZINC000532153088        1 TEMP              0 ****  ****    0 ROOT


##########                                Name:    ZINC000807524472
##########                DOCK_Rotatable_Bonds:                   9
##########                         Heavy_Atoms:                  28
##########                    Molecular_Weight:             410.534
##########                DOCK_Rotatable_Bonds:                   9
##########                       Formal_Charge:           0.0200006
##########                     HBond_Acceptors:                   8
##########                        HBond_Donors:                   0
##########                         Heavy_Atoms:                  28
##########                          Grid_Score:          -35.128609
##########                     Grid_vdw_energy:          -34.373688
##########                      Grid_es_energy:           -0.754920
##########           Internal_energy_repulsive:           17.442223

@<TRIPOS>MOLECULE
ZINC000807524472
 58 60 1 0 0
SMALL
USER_CHARGES


@<TRIPOS>ATOM
      1 C1         -7.4723    1.7444   50.5276 C.3     1  ZINC000807524472   -0.1500
      2 C2         -6.7733    0.5205   51.1230 C.3     1  ZINC000807524472    0.0600
      3 O3         -7.3922   -0.6689   50.6287 O.3     1  ZINC000807524472   -0.3800
      4 C4         -8.0406   -1.4483   51.6359 C.3     1  ZINC000807524472    0.0600
      5 C5         -9.1404   -0.6148   52.2966 C.3     1  ZINC000807524472    0.0700
      6 O6        -10.2291   -1.4853   52.7032 O.3     1  ZINC000807524472   -0.3500
      7 C7        -10.7972   -1.2367   53.8997 C.2     1  ZINC000807524472    0.5000
      8 O8        -10.3917   -0.3194   54.5858 O.2     1  ZINC000807524472   -0.4600
      9 C9        -11.9094   -2.0768   54.3757 C.ar    1  ZINC000807524472   -0.1200
     10 C10       -11.7784   -2.8150   55.5552 C.ar    1  ZINC000807524472    0.0400
     11 C11       -12.8228   -3.5984   55.9951 C.ar    1  ZINC000807524472   -0.7000
     12 S12       -12.6548   -4.5275   57.4828 S.o2    1  ZINC000807524472    2.6900
     13 O13       -13.9413   -5.0569   57.7727 O.2     1  ZINC000807524472   -0.9500
     14 O14       -11.4991   -5.3384   57.3212 O.2     1  ZINC000807524472   -0.9500
     15 N15       -12.3070   -3.4540   58.6947 N.am    1  ZINC000807524472   -0.9900
     16 C16       -11.0553   -3.5642   59.4560 C.3     1  ZINC000807524472    0.1200
     17 C17       -10.3288   -2.2163   59.4086 C.3     1  ZINC000807524472   -0.1400
     18 C18       -11.2705   -1.1161   59.9032 C.3     1  ZINC000807524472   -0.1200
     19 C19       -12.4932   -1.0384   58.9862 C.3     1  ZINC000807524472   -0.1400
     20 C20       -13.2415   -2.3693   59.0249 C.3     1  ZINC000807524472    0.1200
     21 C21       -14.0047   -3.6593   55.2742 C.ar    1  ZINC000807524472    0.0200
     22 C22       -14.1501   -2.9369   54.1076 C.ar    1  ZINC000807524472   -0.1800
     23 C23       -13.1107   -2.1366   53.6504 C.ar    1  ZINC000807524472    0.2000
     24 N24       -13.2544   -1.4085   52.4771 N.3     1  ZINC000807524472   -0.4800
     25 C25       -13.6122   -2.2954   51.3407 C.3     1  ZINC000807524472    0.0400
     26 C26       -14.2311   -1.3185   50.3096 C.3     1  ZINC000807524472   -0.1200
     27 C27       -15.0127   -0.3255   51.2002 C.3     1  ZINC000807524472   -0.1300
     28 C28       -14.3602   -0.4329   52.5909 C.3     1  ZINC000807524472    0.0400
     29 H29        -8.5243    1.7366   50.8131 H       1  ZINC000807524472    0.0600
     30 H30        -7.0002    2.6516   50.9046 H       1  ZINC000807524472    0.0700
     31 H31        -7.3905    1.7168   49.4411 H       1  ZINC000807524472    0.0700
     32 H32        -5.7214    0.5282   50.8375 H       1  ZINC000807524472    0.0500
     33 H33        -6.8551    0.5482   52.2096 H       1  ZINC000807524472    0.0500
     34 H34        -8.4808   -2.3357   51.1811 H       1  ZINC000807524472    0.0600
     35 H35        -7.3113   -1.7493   52.3880 H       1  ZINC000807524472    0.0700
     36 H36        -8.7351   -0.1070   53.1718 H       1  ZINC000807524472    0.0900
     37 H37        -9.5120    0.1244   51.5870 H       1  ZINC000807524472    0.0800
     38 H38       -10.8594   -2.7717   56.1208 H       1  ZINC000807524472    0.1600
     39 H39       -11.2788   -3.8226   60.4911 H       1  ZINC000807524472    0.0800
     40 H40       -10.4247   -4.3350   59.0128 H       1  ZINC000807524472    0.0900
     41 H41        -9.4472   -2.2555   60.0483 H       1  ZINC000807524472    0.0800
     42 H42       -10.0260   -2.0022   58.3835 H       1  ZINC000807524472    0.0700
     43 H43       -11.5927   -1.3437   60.9195 H       1  ZINC000807524472    0.0700
     44 H44       -10.7481   -0.1595   59.8938 H       1  ZINC000807524472    0.0700
     45 H45       -13.1522   -0.2392   59.3255 H       1  ZINC000807524472    0.0800
     46 H46       -12.1700   -0.8354   57.9653 H       1  ZINC000807524472    0.0700
     47 H47       -14.0549   -2.3524   58.2995 H       1  ZINC000807524472    0.0900
     48 H48       -13.6439   -2.5333   60.0245 H       1  ZINC000807524472    0.0800
     49 H49       -14.8175   -4.2765   55.6278 H       1  ZINC000807524472    0.1500
     50 H50       -15.0744   -2.9903   53.5516 H       1  ZINC000807524472    0.1400
     51 H51       -12.7226   -2.7741   50.9313 H       1  ZINC000807524472    0.0900
     52 H52       -14.3437   -3.0417   51.6507 H       1  ZINC000807524472    0.0500
     53 H53       -13.4505   -0.8028   49.7502 H       1  ZINC000807524472    0.0800
     54 H54       -14.9060   -1.8457   49.6355 H       1  ZINC000807524472    0.0800
     55 H55       -14.9137    0.6886   50.8131 H       1  ZINC000807524472    0.0800
     56 H56       -16.0635   -0.6105   51.2523 H       1  ZINC000807524472    0.0700
     57 H57       -15.0921   -0.7844   53.3183 H       1  ZINC000807524472    0.0500
     58 H58       -13.9689    0.5384   52.8934 H       1  ZINC000807524472    0.0900
@<TRIPOS>BOND
     1     1     2    1
     2     1    29    1
     3     1    30    1
     4     1    31    1
     5     2     3    1
     6     2    32    1
     7     2    33    1
     8     3     4    1
     9     4     5    1
    10     4    34    1
    11     4    35    1
    12     5     6    1
    13     5    36    1
    14     5    37    1
    15     6     7    1
    16     7     8    2
    17     7     9    1
    18     9    23   ar
    19     9    10   ar
    20    10    11   ar
    21    10    38    1
    22    11    12    1
    23    11    21   ar
    24    12    13    2
    25    12    14    2
    26    12    15   am
    27    15    20    1
    28    15    16    1
    29    16    17    1
    30    16    39    1
    31    16    40    1
    32    17    18    1
    33    17    41    1
    34    17    42    1
    35    18    19    1
    36    18    43    1
    37    18    44    1
    38    19    20    1
    39    19    45    1
    40    19    46    1
    41    20    47    1
    42    20    48    1
    43    21    22   ar
    44    21    49    1
    45    22    23   ar
    46    22    50    1
    47    23    24    1
    48    24    28    1
    49    24    25    1
    50    25    26    1
    51    25    51    1
    52    25    52    1
    53    26    27    1
    54    26    53    1
    55    26    54    1
    56    27    28    1
    57    27    55    1
    58    27    56    1
    59    28    57    1
    60    28    58    1
@<TRIPOS>SUBSTRUCTURE
     1 ZINC000807524472        1 TEMP              0 ****  ****    0 ROOT


##########                                Name:    ZINC000538774026
##########                DOCK_Rotatable_Bonds:                  10
##########                         Heavy_Atoms:                  29
##########                    Molecular_Weight:             414.496
##########                DOCK_Rotatable_Bonds:                  10
##########                       Formal_Charge:            0.049999
##########                     HBond_Acceptors:                   9
##########                        HBond_Donors:                   2
##########                         Heavy_Atoms:                  29
##########                          Grid_Score:          -35.127167
##########                     Grid_vdw_energy:          -33.166000
##########                      Grid_es_energy:           -1.961166
##########           Internal_energy_repulsive:           23.638992

@<TRIPOS>MOLECULE
ZINC000538774026
 61 62 1 0 0
SMALL
USER_CHARGES


@<TRIPOS>ATOM
      1 C1         -8.8767    0.4709   64.4361 C.3     1  ZINC000538774026   -0.1500
      2 C2        -10.3519    0.5917   64.0487 C.3     1  ZINC000538774026   -0.1100
      3 C3        -11.0299    1.6332   64.9410 C.3     1  ZINC000538774026   -0.1400
      4 C4        -10.4610    1.0252   62.5854 C.3     1  ZINC000538774026    0.1400
      5 N5        -10.4973   -0.1608   61.7261 N.pl3   1  ZINC000538774026   -0.3400
      6 N6         -9.9372   -1.4102   62.0213 N.2     1  ZINC000538774026   -0.2500
      7 C7        -10.1726   -2.2152   61.0170 C.2     1  ZINC000538774026    0.0500
      8 C8        -10.8924   -1.5074   60.0436 C.2     1  ZINC000538774026    0.0800
      9 N9        -11.3409   -2.0173   58.8097 N.am    1  ZINC000538774026   -0.6600
     10 C10       -12.3949   -2.8565   58.7703 C.2     1  ZINC000538774026    0.7100
     11 O11       -12.9595   -3.1720   59.8000 O.2     1  ZINC000538774026   -0.5700
     12 N12       -12.8230   -3.3457   57.5898 N.am    1  ZINC000538774026   -0.7300
     13 C13       -13.9675   -4.2592   57.5473 C.3     1  ZINC000538774026    0.1600
     14 C14       -15.2357   -3.4725   57.2098 C.3     1  ZINC000538774026   -0.1300
     15 C15       -15.0701   -2.7986   55.8462 C.3     1  ZINC000538774026   -0.1000
     16 C16       -14.8317   -3.8653   54.7757 C.3     1  ZINC000538774026   -0.0800
     17 C17       -14.6686   -3.2015   53.4326 C.2     1  ZINC000538774026    0.4700
     18 O18       -15.5553   -2.5113   52.9883 O.2     1  ZINC000538774026   -0.5000
     19 O19       -13.5385   -3.3769   52.7301 O.3     1  ZINC000538774026   -0.3500
     20 C20       -12.8564   -2.1808   52.2692 C.3     1  ZINC000538774026    0.1200
     21 C21       -12.9432   -1.0973   53.3460 C.3     1  ZINC000538774026   -0.1800
     22 C22       -11.3876   -2.5066   51.9907 C.3     1  ZINC000538774026   -0.1400
     23 C23       -13.5196   -1.6782   50.9854 C.3     1  ZINC000538774026   -0.1800
     24 C24       -13.5636   -4.6520   55.1131 C.3     1  ZINC000538774026   -0.1100
     25 C25       -13.7292   -5.3260   56.4767 C.3     1  ZINC000538774026   -0.1300
     26 C26       -11.0853   -0.2453   60.5044 C.2     1  ZINC000538774026   -0.0500
     27 C27       -11.8118    0.8632   59.7872 C.3     1  ZINC000538774026    0.3500
     28 F28       -11.3279    0.9676   58.4787 F       1  ZINC000538774026   -0.1900
     29 F29       -13.1815    0.5796   59.7566 F       1  ZINC000538774026   -0.1900
     30 H30        -8.7989    0.1621   65.4786 H       1  ZINC000538774026    0.0600
     31 H31        -8.3937   -0.2711   63.8003 H       1  ZINC000538774026    0.0600
     32 H32        -8.3865    1.4357   64.3054 H       1  ZINC000538774026    0.0600
     33 H33       -10.8421   -0.3731   64.1793 H       1  ZINC000538774026    0.0800
     34 H34       -10.5398    2.5980   64.8104 H       1  ZINC000538774026    0.0600
     35 H35       -12.0809    1.7194   64.6649 H       1  ZINC000538774026    0.0600
     36 H36       -10.9522    1.3244   65.9835 H       1  ZINC000538774026    0.0600
     37 H37       -11.3741    1.6037   62.4450 H       1  ZINC000538774026    0.1000
     38 H38        -9.5987    1.6379   62.3227 H       1  ZINC000538774026    0.1000
     39 H39        -9.8648   -3.2481   60.9492 H       1  ZINC000538774026    0.2100
     40 H40       -10.8913   -1.7646   57.9882 H       1  ZINC000538774026    0.4100
     41 H41       -12.3734   -3.0930   56.7683 H       1  ZINC000538774026    0.4000
     42 H42       -14.0855   -4.7393   58.5186 H       1  ZINC000538774026    0.1000
     43 H43       -16.0872   -4.1522   57.1782 H       1  ZINC000538774026    0.0800
     44 H44       -15.4056   -2.7125   57.9724 H       1  ZINC000538774026    0.0800
     45 H45       -15.9736   -2.2381   55.6059 H       1  ZINC000538774026    0.0700
     46 H46       -14.2186   -2.1189   55.8779 H       1  ZINC000538774026    0.0700
     47 H47       -15.6833   -4.5449   54.7440 H       1  ZINC000538774026    0.1100
     48 H48       -12.4707   -1.4555   54.2607 H       1  ZINC000538774026    0.0600
     49 H49       -12.4311   -0.1994   53.0001 H       1  ZINC000538774026    0.0700
     50 H50       -13.9895   -0.8653   53.5444 H       1  ZINC000538774026    0.0800
     51 H51       -11.3257   -3.2785   51.2237 H       1  ZINC000538774026    0.0700
     52 H52       -10.8756   -1.6087   51.6449 H       1  ZINC000538774026    0.0800
     53 H53       -10.9151   -2.8647   52.9054 H       1  ZINC000538774026    0.0700
     54 H54       -14.5659   -1.4461   51.1837 H       1  ZINC000538774026    0.0800
     55 H55       -13.0076   -0.7803   50.6394 H       1  ZINC000538774026    0.0700
     56 H56       -13.4577   -2.4501   50.2182 H       1  ZINC000538774026    0.0600
     57 H57       -13.3938   -5.4119   54.3504 H       1  ZINC000538774026    0.0800
     58 H58       -12.7120   -3.9723   55.1448 H       1  ZINC000538774026    0.0600
     59 H59       -12.8257   -5.8864   56.7170 H       1  ZINC000538774026    0.0800
     60 H60       -14.5807   -6.0056   56.4450 H       1  ZINC000538774026    0.0900
     61 H61       -11.6472    1.8044   60.3117 H       1  ZINC000538774026    0.1300
@<TRIPOS>BOND
     1     1     2    1
     2     1    30    1
     3     1    31    1
     4     1    32    1
     5     2     3    1
     6     2     4    1
     7     2    33    1
     8     3    34    1
     9     3    35    1
    10     3    36    1
    11     4     5    1
    12     4    37    1
    13     4    38    1
    14     5    26    1
    15     5     6    1
    16     6     7    2
    17     7     8    1
    18     7    39    1
    19     8     9    1
    20     8    26    2
    21     9    10   am
    22     9    40    1
    23    10    11    2
    24    10    12   am
    25    12    13    1
    26    12    41    1
    27    13    25    1
    28    13    14    1
    29    13    42    1
    30    14    15    1
    31    14    43    1
    32    14    44    1
    33    15    16    1
    34    15    45    1
    35    15    46    1
    36    16    17    1
    37    16    24    1
    38    16    47    1
    39    17    18    2
    40    17    19    1
    41    19    20    1
    42    20    21    1
    43    20    22    1
    44    20    23    1
    45    21    48    1
    46    21    49    1
    47    21    50    1
    48    22    51    1
    49    22    52    1
    50    22    53    1
    51    23    54    1
    52    23    55    1
    53    23    56    1
    54    24    25    1
    55    24    57    1
    56    24    58    1
    57    25    59    1
    58    25    60    1
    59    26    27    1
    60    27    28    1
    61    27    29    1
    62    27    61    1
@<TRIPOS>SUBSTRUCTURE
     1 ZINC000538774026        1 TEMP              0 ****  ****    0 ROOT


##########                                Name:    ZINC000426805817
##########                DOCK_Rotatable_Bonds:                   6
##########                         Heavy_Atoms:                  26
##########                    Molecular_Weight:             412.286
##########                DOCK_Rotatable_Bonds:                   6
##########                       Formal_Charge:          -0.0100001
##########                     HBond_Acceptors:                   5
##########                        HBond_Donors:                   4
##########                         Heavy_Atoms:                  26
##########                          Grid_Score:          -35.126190
##########                     Grid_vdw_energy:          -32.474918
##########                      Grid_es_energy:           -2.651273
##########           Internal_energy_repulsive:            5.840066

@<TRIPOS>MOLECULE
ZINC000426805817
 44 47 1 0 0
SMALL
USER_CHARGES


@<TRIPOS>ATOM
      1 O1        -13.5016   -0.2016   60.6117 O.co2   1  ZINC000426805817   -0.6300
      2 C2        -12.9712   -1.1998   61.0685 C.2     1  ZINC000426805817    0.5000
      3 O3        -13.6084   -2.2337   61.1758 O.co2   1  ZINC000426805817   -0.6800
      4 C4        -11.5264   -1.1575   61.4948 C.3     1  ZINC000426805817   -0.0500
      5 H5        -11.2945   -2.0464   62.0816 H       1  ZINC000426805817    0.1300
      6 C6        -10.6300   -1.1163   60.2556 C.3     1  ZINC000426805817   -0.0500
      7 C7        -10.3835   -2.5204   59.7670 C.2     1  ZINC000426805817   -0.1900
      8 C8         -9.3760   -3.3282   60.1334 C.2     1  ZINC000426805817    0.0500
      9 N9         -9.4787   -4.5271   59.4820 N.pl3   1  ZINC000426805817   -0.5900
     10 C10       -10.5833   -4.5199   58.6592 C.ar    1  ZINC000426805817    0.1100
     11 C11       -11.1376   -5.4579   57.7950 C.ar    1  ZINC000426805817   -0.1200
     12 C12       -12.2794   -5.1510   57.0880 C.ar    1  ZINC000426805817   -0.0700
     13 C13       -12.8871   -3.9100   57.2282 C.ar    1  ZINC000426805817   -0.1100
     14 Br14      -14.4538   -3.5141   56.2460 Br      1  ZINC000426805817   -0.0400
     15 C15       -12.3553   -2.9665   58.0788 C.ar    1  ZINC000426805817   -0.0400
     16 C16       -11.2018   -3.2650   58.8066 C.ar    1  ZINC000426805817   -0.1000
     17 N17       -11.2912    0.0420   62.3095 N.4     1  ZINC000426805817   -0.4800
     18 H18       -10.9219    0.7778   61.7261 H       1  ZINC000426805817    0.4000
     19 H19       -12.1610    0.3445   62.7219 H       1  ZINC000426805817    0.4200
     20 C20       -10.3273   -0.2698   63.3733 C.3     1  ZINC000426805817    0.0400
     21 C21       -10.3091    0.8521   64.3793 C.ar    1  ZINC000426805817   -0.1600
     22 C22        -9.2299    0.9956   65.2449 C.ar    1  ZINC000426805817    0.1100
     23 N23        -8.0590    0.2938   65.4248 N.pl3   1  ZINC000426805817   -0.5900
     24 C24        -7.3255    0.8626   66.4302 C.2     1  ZINC000426805817    0.0600
     25 C25        -7.9765    1.9266   66.9262 C.2     1  ZINC000426805817   -0.2000
     26 C26        -9.2295    2.0493   66.1774 C.ar    1  ZINC000426805817   -0.1100
     27 C27       -10.3061    2.9366   66.2260 C.ar    1  ZINC000426805817   -0.0400
     28 C28       -11.3562    2.7769   65.3662 C.ar    1  ZINC000426805817   -0.1500
     29 C29       -11.3588    1.7424   64.4409 C.ar    1  ZINC000426805817   -0.0700
     30 H30       -11.1202   -0.5394   59.4715 H       1  ZINC000426805817    0.1200
     31 H31        -9.6791   -0.6483   60.5106 H       1  ZINC000426805817    0.0900
     32 H32        -8.5993   -3.0699   60.8379 H       1  ZINC000426805817    0.1700
     33 H33        -8.8649   -5.2712   59.5846 H       1  ZINC000426805817    0.4200
     34 H34       -10.6732   -6.4260   57.6780 H       1  ZINC000426805817    0.1300
     35 H35       -12.7060   -5.8825   56.4178 H       1  ZINC000426805817    0.1400
     36 H36       -12.8303   -2.0025   58.1856 H       1  ZINC000426805817    0.1400
     37 H37       -10.6189   -1.1964   63.8676 H       1  ZINC000426805817    0.1500
     38 H38        -9.3336   -0.3859   62.9406 H       1  ZINC000426805817    0.1300
     39 H39        -7.7939   -0.4879   64.9152 H       1  ZINC000426805817    0.4300
     40 H40        -6.3650    0.5080   66.7737 H       1  ZINC000426805817    0.1800
     41 H41        -7.6404    2.5699   67.7260 H       1  ZINC000426805817    0.1500
     42 H42       -10.3092    3.7462   66.9408 H       1  ZINC000426805817    0.1300
     43 H43       -12.1889    3.4637   65.4042 H       1  ZINC000426805817    0.1300
     44 H44       -12.1960    1.6292   63.7680 H       1  ZINC000426805817    0.1300
@<TRIPOS>BOND
     1     1     2   ar
     2     2     3   ar
     3     2     4    1
     4     4     5    1
     5     4     6    1
     6     4    17    1
     7     6     7    1
     8     6    30    1
     9     6    31    1
    10     7    16    1
    11     7     8    2
    12     8     9    1
    13     8    32    1
    14     9    10    1
    15     9    33    1
    16    10    16   ar
    17    10    11   ar
    18    11    12   ar
    19    11    34    1
    20    12    13   ar
    21    12    35    1
    22    13    14    1
    23    13    15   ar
    24    15    16   ar
    25    15    36    1
    26    17    18    1
    27    17    19    1
    28    17    20    1
    29    20    21    1
    30    20    37    1
    31    20    38    1
    32    21    29   ar
    33    21    22   ar
    34    22    26   ar
    35    22    23    1
    36    23    24    1
    37    23    39    1
    38    24    25    2
    39    24    40    1
    40    25    26    1
    41    25    41    1
    42    26    27   ar
    43    27    28   ar
    44    27    42    1
    45    28    29   ar
    46    28    43    1
    47    29    44    1
@<TRIPOS>SUBSTRUCTURE
     1 ZINC000426805817        1 TEMP              0 ****  ****    0 ROOT


##########                                Name:    ZINC000000992968
##########                DOCK_Rotatable_Bonds:                   8
##########                         Heavy_Atoms:                  27
##########                    Molecular_Weight:             384.772
##########                DOCK_Rotatable_Bonds:                   8
##########                       Formal_Charge:           0.0199999
##########                     HBond_Acceptors:                   7
##########                        HBond_Donors:                   0
##########                         Heavy_Atoms:                  27
##########                          Grid_Score:          -35.122627
##########                     Grid_vdw_energy:          -34.102741
##########                      Grid_es_energy:           -1.019886
##########           Internal_energy_repulsive:            8.392695

@<TRIPOS>MOLECULE
ZINC000000992968
 40 42 1 0 0
SMALL
USER_CHARGES


@<TRIPOS>ATOM
      1 O1        -13.0059    0.0069   52.6780 O.2     1  ZINC000000992968   -0.4600
      2 C2        -13.2252   -0.6407   51.6721 C.2     1  ZINC000000992968    0.5600
      3 O3        -12.8316   -1.9295   51.6001 O.3     1  ZINC000000992968   -0.2900
      4 C4        -12.8123   -2.6546   52.7469 C.ar    1  ZINC000000992968    0.1200
      5 C5        -11.6022   -3.1122   53.2571 C.ar    1  ZINC000000992968   -0.1300
      6 C6        -11.5772   -3.8483   54.4195 C.ar    1  ZINC000000992968   -0.0400
      7 C7        -12.7729   -4.1361   55.0890 C.ar    1  ZINC000000992968   -0.1600
      8 C8        -12.7519   -4.9211   56.3304 C.2     1  ZINC000000992968    0.4000
      9 O9        -13.7343   -5.5466   56.6691 O.2     1  ZINC000000992968   -0.4200
     10 C10       -11.5097   -4.9492   57.1833 C.3     1  ZINC000000992968    0.0200
     11 O11       -11.5296   -3.8270   58.1045 O.3     1  ZINC000000992968   -0.3300
     12 C12       -10.4909   -3.7156   58.9552 C.2     1  ZINC000000992968    0.5100
     13 O13        -9.5851   -4.5242   58.9170 O.2     1  ZINC000000992968   -0.5000
     14 C14       -10.4533   -2.6104   59.9337 C.ar    1  ZINC000000992968   -0.1300
     15 C15       -11.3595   -1.5525   59.8318 C.ar    1  ZINC000000992968   -0.0500
     16 C16       -11.3196   -0.5237   60.7490 C.ar    1  ZINC000000992968   -0.1200
     17 C17       -10.3831   -0.5378   61.7697 C.ar    1  ZINC000000992968    0.0000
     18 Cl18      -10.3390    0.7614   62.9202 Cl      1  ZINC000000992968   -0.0500
     19 C19        -9.4821   -1.5845   61.8763 C.ar    1  ZINC000000992968   -0.1200
     20 C20        -9.5153   -2.6218   60.9685 C.ar    1  ZINC000000992968   -0.0400
     21 C21       -13.9885   -3.6726   54.5713 C.ar    1  ZINC000000992968   -0.0600
     22 C22       -14.0020   -2.9328   53.4110 C.ar    1  ZINC000000992968   -0.1200
     23 C23       -13.9218   -0.0236   50.5413 C.2     1  ZINC000000992968   -0.0700
     24 C24       -14.2412   -0.6375   49.3629 C.2     1  ZINC000000992968   -0.0900
     25 C25       -14.8973    0.3199   48.5745 C.2     1  ZINC000000992968   -0.2300
     26 C26       -14.9496    1.4617   49.2961 C.2     1  ZINC000000992968    0.0200
     27 O27       -14.3661    1.2491   50.4825 O.3     1  ZINC000000992968   -0.1500
     28 H28       -10.6805   -2.8897   52.7400 H       1  ZINC000000992968    0.1400
     29 H29       -10.6370   -4.2038   54.8146 H       1  ZINC000000992968    0.1500
     30 H30       -11.4772   -5.8815   57.7470 H       1  ZINC000000992968    0.1100
     31 H31       -10.6291   -4.8796   56.5448 H       1  ZINC000000992968    0.1100
     32 H32       -12.0895   -1.5401   59.0360 H       1  ZINC000000992968    0.1500
     33 H33       -12.0197    0.2949   60.6712 H       1  ZINC000000992968    0.1500
     34 H34        -8.7546   -1.5900   62.6745 H       1  ZINC000000992968    0.1500
     35 H35        -8.8125   -3.4374   61.0529 H       1  ZINC000000992968    0.1500
     36 H36       -14.9135   -3.8921   55.0837 H       1  ZINC000000992968    0.1400
     37 H37       -14.9391   -2.5746   53.0110 H       1  ZINC000000992968    0.1400
     38 H38       -14.0295   -1.6610   49.0910 H       1  ZINC000000992968    0.1700
     39 H39       -15.2873    0.1722   47.5783 H       1  ZINC000000992968    0.1700
     40 H40       -15.3926    2.3914   48.9707 H       1  ZINC000000992968    0.2200
@<TRIPOS>BOND
     1     1     2    2
     2     2     3    1
     3     2    23    1
     4     3     4    1
     5     4    22   ar
     6     4     5   ar
     7     5     6   ar
     8     5    28    1
     9     6     7   ar
    10     6    29    1
    11     7     8    1
    12     7    21   ar
    13     8     9    2
    14     8    10    1
    15    10    11    1
    16    10    30    1
    17    10    31    1
    18    11    12    1
    19    12    13    2
    20    12    14    1
    21    14    20   ar
    22    14    15   ar
    23    15    16   ar
    24    15    32    1
    25    16    17   ar
    26    16    33    1
    27    17    18    1
    28    17    19   ar
    29    19    20   ar
    30    19    34    1
    31    20    35    1
    32    21    22   ar
    33    21    36    1
    34    22    37    1
    35    23    27    1
    36    23    24    2
    37    24    25    1
    38    24    38    1
    39    25    26    2
    40    25    39    1
    41    26    27    1
    42    26    40    1
@<TRIPOS>SUBSTRUCTURE
     1 ZINC000000992968        1 TEMP              0 ****  ****    0 ROOT


##########                                Name:    ZINC000847397179
##########                DOCK_Rotatable_Bonds:                   9
##########                         Heavy_Atoms:                  25
##########                    Molecular_Weight:             350.461
##########                DOCK_Rotatable_Bonds:                   9
##########                       Formal_Charge:          0.00999979
##########                     HBond_Acceptors:                   7
##########                        HBond_Donors:                   2
##########                         Heavy_Atoms:                  25
##########                          Grid_Score:          -35.081493
##########                     Grid_vdw_energy:          -33.969784
##########                      Grid_es_energy:           -1.111708
##########           Internal_energy_repulsive:           83.614769

@<TRIPOS>MOLECULE
ZINC000847397179
 55 56 1 0 0
SMALL
USER_CHARGES


@<TRIPOS>ATOM
      1 C1         -9.5229   -3.3654   60.2549 C.3     1  ZINC000847397179   -0.1500
      2 C2         -9.9452   -1.9277   59.9461 C.3     1  ZINC000847397179   -0.1000
      3 H3         -9.0971   -1.2598   60.0960 H       1  ZINC000847397179    0.0900
      4 C4        -11.0868   -1.5198   60.8795 C.3     1  ZINC000847397179   -0.0200
      5 C5        -10.5181   -0.8694   62.1142 C.2     1  ZINC000847397179    0.0100
      6 C6        -11.1418    0.0383   62.8892 C.2     1  ZINC000847397179   -0.0500
      7 N7        -10.2737    0.3622   63.8967 N.pl3   1  ZINC000847397179   -0.5700
      8 C8         -9.1489   -0.3593   63.7022 C.2     1  ZINC000847397179    0.1800
      9 N9         -9.3042   -1.0972   62.6371 N.2     1  ZINC000847397179   -0.4900
     10 C10       -10.4095   -1.8370   58.5152 C.2     1  ZINC000847397179    0.5200
     11 O11       -10.2541   -0.8086   57.8913 O.2     1  ZINC000847397179   -0.5300
     12 N12       -10.9974   -2.8986   57.9289 N.am    1  ZINC000847397179   -0.7400
     13 C13       -11.4503   -2.8098   56.5385 C.3     1  ZINC000847397179    0.1200
     14 C14       -12.2074   -4.0862   56.1663 C.3     1  ZINC000847397179    0.1500
     15 H15       -11.5237   -4.9348   56.1836 H       1  ZINC000847397179    0.0800
     16 C16       -13.3424   -4.3206   57.1680 C.3     1  ZINC000847397179   -0.1300
     17 C17       -14.1804   -5.5175   56.7127 C.3     1  ZINC000847397179   -0.1200
     18 C18       -14.7977   -5.2191   55.3443 C.3     1  ZINC000847397179   -0.1400
     19 C19       -13.6791   -4.9949   54.3219 C.3     1  ZINC000847397179    0.1100
     20 N20       -12.7817   -3.9437   54.8214 N.am    1  ZINC000847397179   -0.5900
     21 C21       -12.4952   -2.8676   54.0624 C.2     1  ZINC000847397179    0.6500
     22 O22       -11.7518   -2.0053   54.4868 O.2     1  ZINC000847397179   -0.5500
     23 O23       -13.0328   -2.7479   52.8338 O.3     1  ZINC000847397179   -0.3600
     24 C24       -14.0147   -1.6953   52.6435 C.3     1  ZINC000847397179    0.1400
     25 C25       -13.2993   -0.3849   52.3088 C.3     1  ZINC000847397179   -0.1800
     26 C26       -14.9512   -2.0731   51.4942 C.3     1  ZINC000847397179   -0.1400
     27 C27       -14.8282   -1.5186   53.9273 C.3     1  ZINC000847397179   -0.1800
     28 H28       -10.3710   -4.0335   60.1051 H       1  ZINC000847397179    0.0500
     29 H29        -8.7096   -3.6560   59.5899 H       1  ZINC000847397179    0.0500
     30 H30        -9.1871   -3.4311   61.2899 H       1  ZINC000847397179    0.1000
     31 H31       -11.7416   -0.8154   60.3665 H       1  ZINC000847397179    0.0800
     32 H32       -11.6567   -2.4042   61.1645 H       1  ZINC000847397179    0.0800
     33 H33       -12.1358    0.4348   62.7437 H       1  ZINC000847397179    0.1800
     34 H34       -10.4361    0.9924   64.6161 H       1  ZINC000847397179    0.4200
     35 H35        -8.2682   -0.3330   64.3269 H       1  ZINC000847397179    0.2100
     36 H36       -11.1206   -3.7214   58.4276 H       1  ZINC000847397179    0.3900
     37 H37       -12.1103   -1.9498   56.4256 H       1  ZINC000847397179    0.0800
     38 H38       -10.5877   -2.6945   55.8821 H       1  ZINC000847397179    0.1000
     39 H39       -12.9221   -4.5244   58.1529 H       1  ZINC000847397179    0.0800
     40 H40       -13.9730   -3.4329   57.2177 H       1  ZINC000847397179    0.0700
     41 H41       -13.5440   -6.3994   56.6393 H       1  ZINC000847397179    0.0700
     42 H42       -14.9740   -5.7017   57.4367 H       1  ZINC000847397179    0.0700
     43 H43       -15.4132   -6.0624   55.0312 H       1  ZINC000847397179    0.0800
     44 H44       -15.4145   -4.3229   55.4112 H       1  ZINC000847397179    0.0700
     45 H45       -13.1167   -5.9188   54.1870 H       1  ZINC000847397179    0.0700
     46 H46       -14.1108   -4.6851   53.3702 H       1  ZINC000847397179    0.0900
     47 H47       -12.7197   -0.5107   51.3943 H       1  ZINC000847397179    0.0600
     48 H48       -14.0364    0.4053   52.1660 H       1  ZINC000847397179    0.0700
     49 H49       -12.6320   -0.1158   53.1276 H       1  ZINC000847397179    0.0900
     50 H50       -15.4610   -3.0066   51.7327 H       1  ZINC000847397179    0.0700
     51 H51       -15.6883   -1.2828   51.3514 H       1  ZINC000847397179    0.0800
     52 H52       -14.3717   -2.1989   50.5796 H       1  ZINC000847397179    0.0700
     53 H53       -14.1610   -1.2494   54.7461 H       1  ZINC000847397179    0.0900
     54 H54       -15.5653   -0.7284   53.7845 H       1  ZINC000847397179    0.0700
     55 H55       -15.3379   -2.4521   54.1658 H       1  ZINC000847397179    0.0600
@<TRIPOS>BOND
     1     1     2    1
     2     1    28    1
     3     1    29    1
     4     1    30    1
     5     2     3    1
     6     2     4    1
     7     2    10    1
     8     4     5    1
     9     4    31    1
    10     4    32    1
    11     5     9    1
    12     5     6    2
    13     6     7    1
    14     6    33    1
    15     7     8    1
    16     7    34    1
    17     8     9    2
    18     8    35    1
    19    10    11    2
    20    10    12   am
    21    12    13    1
    22    12    36    1
    23    13    14    1
    24    13    37    1
    25    13    38    1
    26    14    15    1
    27    14    20    1
    28    14    16    1
    29    16    17    1
    30    16    39    1
    31    16    40    1
    32    17    18    1
    33    17    41    1
    34    17    42    1
    35    18    19    1
    36    18    43    1
    37    18    44    1
    38    19    20    1
    39    19    45    1
    40    19    46    1
    41    20    21   am
    42    21    22    2
    43    21    23    1
    44    23    24    1
    45    24    25    1
    46    24    26    1
    47    24    27    1
    48    25    47    1
    49    25    48    1
    50    25    49    1
    51    26    50    1
    52    26    51    1
    53    26    52    1
    54    27    53    1
    55    27    54    1
    56    27    55    1
@<TRIPOS>SUBSTRUCTURE
     1 ZINC000847397179        1 TEMP              0 ****  ****    0 ROOT


##########                                Name:    ZINC000787750060
##########                DOCK_Rotatable_Bonds:                   6
##########                         Heavy_Atoms:                  24
##########                    Molecular_Weight:             347.438
##########                DOCK_Rotatable_Bonds:                   6
##########                       Formal_Charge:           0.0200003
##########                     HBond_Acceptors:                   7
##########                        HBond_Donors:                   2
##########                         Heavy_Atoms:                  24
##########                          Grid_Score:          -35.050339
##########                     Grid_vdw_energy:          -32.944637
##########                      Grid_es_energy:           -2.105703
##########           Internal_energy_repulsive:            7.331350

@<TRIPOS>MOLECULE
ZINC000787750060
 45 47 1 0 0
SMALL
USER_CHARGES


@<TRIPOS>ATOM
      1 C1         -9.8990    2.1850   64.9586 C.3     1  ZINC000787750060   -0.1200
      2 C2        -10.0209    1.0486   63.9764 C.ar    1  ZINC000787750060   -0.0400
      3 C3         -9.1998   -0.0599   64.1007 C.ar    1  ZINC000787750060   -0.1300
      4 C4         -9.3025   -1.1049   63.2080 C.ar    1  ZINC000787750060   -0.0700
      5 C5        -10.2388   -1.0474   62.1732 C.ar    1  ZINC000787750060   -0.1700
      6 C6        -10.3545   -2.1628   61.2144 C.2     1  ZINC000787750060    0.5600
      7 O7        -11.4359   -2.6803   61.0113 O.2     1  ZINC000787750060   -0.5200
      8 N8         -9.2614   -2.6081   60.5636 N.am    1  ZINC000787750060   -0.7300
      9 C9         -9.3761   -3.7167   59.6128 C.3     1  ZINC000787750060    0.2100
     10 C10       -10.0895   -3.2432   58.3727 C.2     1  ZINC000787750060   -0.2800
     11 C11        -9.9651   -2.0414   57.8089 C.2     1  ZINC000787750060    0.0900
     12 N12       -10.6977   -1.8651   56.7236 N.2     1  ZINC000787750060   -0.5200
     13 C13       -11.4347   -2.8629   56.3455 C.2     1  ZINC000787750060    0.2300
     14 N14       -12.2645   -2.8613   55.2352 N.3     1  ZINC000787750060   -0.4500
     15 C15       -13.4784   -3.6525   55.4836 C.3     1  ZINC000787750060    0.0200
     16 C16       -14.3915   -3.5748   54.2572 C.3     1  ZINC000787750060    0.0600
     17 O17       -13.6750   -4.0295   53.1060 O.3     1  ZINC000787750060   -0.3800
     18 C18       -12.4873   -3.2806   52.8342 C.3     1  ZINC000787750060    0.0600
     19 C19       -11.5549   -3.3554   54.0463 C.3     1  ZINC000787750060    0.0300
     20 S20       -11.2271   -4.1837   57.4111 S.3     1  ZINC000787750060    0.1700
     21 C21       -11.0682    0.0761   62.0511 C.ar    1  ZINC000787750060    0.1700
     22 O22       -11.9813    0.1432   61.0500 O.3     1  ZINC000787750060   -0.4700
     23 C23       -10.9544    1.1161   62.9609 C.ar    1  ZINC000787750060   -0.1200
     24 C24       -11.8432    2.3267   62.8352 C.3     1  ZINC000787750060   -0.1200
     25 H25       -10.5640    2.0076   65.8039 H       1  ZINC000787750060    0.0800
     26 H26        -8.8703    2.2501   65.3132 H       1  ZINC000787750060    0.0700
     27 H27       -10.1745    3.1193   64.4694 H       1  ZINC000787750060    0.0800
     28 H28        -8.4755   -0.1053   64.9005 H       1  ZINC000787750060    0.1300
     29 H29        -8.6597   -1.9670   63.3084 H       1  ZINC000787750060    0.1300
     30 H30        -8.3990   -2.1945   60.7248 H       1  ZINC000787750060    0.4000
     31 H31        -8.3804   -4.0712   59.3462 H       1  ZINC000787750060    0.0900
     32 H32        -9.9410   -4.5296   60.0688 H       1  ZINC000787750060    0.0800
     33 H33        -9.3179   -1.2739   58.2071 H       1  ZINC000787750060    0.1800
     34 H34       -13.2044   -4.6912   55.6681 H       1  ZINC000787750060    0.0600
     35 H35       -14.0015   -3.2535   56.3526 H       1  ZINC000787750060    0.1000
     36 H36       -15.2663   -4.2058   54.4141 H       1  ZINC000787750060    0.1100
     37 H37       -14.7088   -2.5433   54.1044 H       1  ZINC000787750060    0.0700
     38 H38       -11.9847   -3.6990   51.9622 H       1  ZINC000787750060    0.1100
     39 H39       -12.7491   -2.2405   52.6401 H       1  ZINC000787750060    0.0600
     40 H40       -10.6738   -2.7394   53.8662 H       1  ZINC000787750060    0.1000
     41 H41       -11.2501   -4.3894   54.2079 H       1  ZINC000787750060    0.0700
     42 H42       -12.3374   -0.7157   60.7842 H       1  ZINC000787750060    0.4000
     43 H43       -12.7570    2.1675   63.4078 H       1  ZINC000787750060    0.0700
     44 H44       -11.3209    3.2024   63.2202 H       1  ZINC000787750060    0.0700
     45 H45       -12.0946    2.4855   61.7865 H       1  ZINC000787750060    0.0800
@<TRIPOS>BOND
     1     1     2    1
     2     1    25    1
     3     1    26    1
     4     1    27    1
     5     2    23   ar
     6     2     3   ar
     7     3     4   ar
     8     3    28    1
     9     4     5   ar
    10     4    29    1
    11     5     6    1
    12     5    21   ar
    13     6     7    2
    14     6     8   am
    15     8     9    1
    16     8    30    1
    17     9    10    1
    18     9    31    1
    19     9    32    1
    20    10    20    1
    21    10    11    2
    22    11    12    1
    23    11    33    1
    24    12    13    2
    25    13    14    1
    26    13    20    1
    27    14    19    1
    28    14    15    1
    29    15    16    1
    30    15    34    1
    31    15    35    1
    32    16    17    1
    33    16    36    1
    34    16    37    1
    35    17    18    1
    36    18    19    1
    37    18    38    1
    38    18    39    1
    39    19    40    1
    40    19    41    1
    41    21    22    1
    42    21    23   ar
    43    22    42    1
    44    23    24    1
    45    24    43    1
    46    24    44    1
    47    24    45    1
@<TRIPOS>SUBSTRUCTURE
     1 ZINC000787750060        1 TEMP              0 ****  ****    0 ROOT


##########                                Name:    ZINC001411334959
##########                DOCK_Rotatable_Bonds:                   9
##########                         Heavy_Atoms:                  24
##########                    Molecular_Weight:              339.37
##########                DOCK_Rotatable_Bonds:                   9
##########                       Formal_Charge:           0.0199995
##########                     HBond_Acceptors:                   9
##########                        HBond_Donors:                   3
##########                         Heavy_Atoms:                  24
##########                          Grid_Score:          -35.032066
##########                     Grid_vdw_energy:          -30.491087
##########                      Grid_es_energy:           -4.540979
##########           Internal_energy_repulsive:            7.772639

@<TRIPOS>MOLECULE
ZINC001411334959
 46 48 1 0 0
SMALL
USER_CHARGES


@<TRIPOS>ATOM
      1 O1        -16.4812   -2.4431   53.1202 O.2     1  ZINC001411334959   -0.5400
      2 C2        -15.6308   -2.5609   52.2635 C.2     1  ZINC001411334959    0.5200
      3 C3        -15.8530   -1.9703   50.8950 C.3     1  ZINC001411334959   -0.1400
      4 C4        -14.5032   -1.6205   50.2652 C.3     1  ZINC001411334959   -0.0100
      5 C5        -14.7272   -0.9881   48.9158 C.2     1  ZINC001411334959    0.0100
      6 N6        -13.9700   -0.0906   48.3267 N.2     1  ZINC001411334959   -0.2800
      7 N7        -14.4888    0.2033   47.1872 N.pl3   1  ZINC001411334959   -0.2500
      8 N8        -15.5688   -0.4668   46.9916 N.2     1  ZINC001411334959   -0.2800
      9 C9        -15.7793   -1.2405   48.0323 C.2     1  ZINC001411334959   -0.0200
     10 N10       -14.4846   -3.2152   52.5371 N.am    1  ZINC001411334959   -0.7200
     11 C11       -14.2687   -3.7893   53.8675 C.3     1  ZINC001411334959    0.1200
     12 C12       -12.9819   -4.6244   53.9766 C.3     1  ZINC001411334959   -0.1400
     13 C13       -12.7868   -3.9978   55.3674 C.3     1  ZINC001411334959   -0.1200
     14 C14       -11.3333   -3.6347   55.6776 C.3     1  ZINC001411334959    0.1300
     15 N15       -11.2782   -2.8580   56.9185 N.am    1  ZINC001411334959   -0.7200
     16 C16       -10.9851   -3.4690   58.0835 C.2     1  ZINC001411334959    0.5100
     17 O17       -10.7657   -4.6616   58.1043 O.2     1  ZINC001411334959   -0.5100
     18 C18       -10.9301   -2.6704   59.3603 C.3     1  ZINC001411334959    0.0700
     19 F19       -12.2180   -2.4347   59.8534 F       1  ZINC001411334959   -0.1800
     20 C20       -10.0493   -3.3845   60.4215 C.3     1  ZINC001411334959   -0.1600
     21 C21        -9.5524   -2.1752   61.2533 C.3     1  ZINC001411334959    0.0500
     22 O22        -9.3531   -1.1202   60.2991 O.3     1  ZINC001411334959   -0.3700
     23 C23       -10.1725   -1.3424   59.1456 C.3     1  ZINC001411334959    0.0400
     24 C24       -13.6244   -2.8107   54.8636 C.3     1  ZINC001411334959   -0.1400
     25 H25       -16.3704   -2.6950   50.2661 H       1  ZINC001411334959    0.1000
     26 H26       -16.4579   -1.0678   50.9825 H       1  ZINC001411334959    0.1000
     27 H27       -13.9716   -0.9211   50.9105 H       1  ZINC001411334959    0.1000
     28 H28       -13.9111   -2.5280   50.1474 H       1  ZINC001411334959    0.0900
     29 H29       -14.1162    0.8432   46.5607 H       1  ZINC001411334959    0.4700
     30 H30       -16.6010   -1.9260   48.1780 H       1  ZINC001411334959    0.2000
     31 H31       -13.8029   -3.3060   51.8531 H       1  ZINC001411334959    0.4000
     32 H32       -15.1521   -4.2930   54.2598 H       1  ZINC001411334959    0.1200
     33 H33       -13.1600   -5.6994   54.0031 H       1  ZINC001411334959    0.0800
     34 H34       -12.2140   -4.3391   53.2576 H       1  ZINC001411334959    0.0900
     35 H35       -13.2632   -4.5604   56.1704 H       1  ZINC001411334959    0.1000
     36 H36       -10.7477   -4.5467   55.7936 H       1  ZINC001411334959    0.0800
     37 H37       -10.9243   -3.0420   54.8594 H       1  ZINC001411334959    0.0800
     38 H38       -11.4525   -1.9039   56.9017 H       1  ZINC001411334959    0.4100
     39 H39       -10.6435   -4.0639   61.0324 H       1  ZINC001411334959    0.1000
     40 H40        -9.2159   -3.9076   59.9525 H       1  ZINC001411334959    0.1100
     41 H41       -10.3054   -1.8852   61.9861 H       1  ZINC001411334959    0.0700
     42 H42        -8.6134   -2.4183   61.7505 H       1  ZINC001411334959    0.1000
     43 H43        -9.5470   -1.4133   58.2557 H       1  ZINC001411334959    0.0900
     44 H44       -10.8843   -0.5245   59.0345 H       1  ZINC001411334959    0.0900
     45 H45       -13.0321   -2.0295   54.3869 H       1  ZINC001411334959    0.0900
     46 H46       -14.3210   -2.4215   55.6059 H       1  ZINC001411334959    0.0800
@<TRIPOS>BOND
     1     1     2    2
     2     2     3    1
     3     2    10   am
     4     3     4    1
     5     3    25    1
     6     3    26    1
     7     4     5    1
     8     4    27    1
     9     4    28    1
    10     5     9    1
    11     5     6    2
    12     6     7    1
    13     7     8    1
    14     7    29    1
    15     8     9    2
    16     9    30    1
    17    10    11    1
    18    10    31    1
    19    11    24    1
    20    11    12    1
    21    11    32    1
    22    12    13    1
    23    12    33    1
    24    12    34    1
    25    13    14    1
    26    13    24    1
    27    13    35    1
    28    14    15    1
    29    14    36    1
    30    14    37    1
    31    15    16   am
    32    15    38    1
    33    16    17    2
    34    16    18    1
    35    18    23    1
    36    18    19    1
    37    18    20    1
    38    20    21    1
    39    20    39    1
    40    20    40    1
    41    21    22    1
    42    21    41    1
    43    21    42    1
    44    22    23    1
    45    23    43    1
    46    23    44    1
    47    24    45    1
    48    24    46    1
@<TRIPOS>SUBSTRUCTURE
     1 ZINC001411334959        1 TEMP              0 ****  ****    0 ROOT


##########                                Name:    ZINC000011972961
##########                DOCK_Rotatable_Bonds:                   6
##########                         Heavy_Atoms:                  28
##########                    Molecular_Weight:             397.501
##########                DOCK_Rotatable_Bonds:                   6
##########                       Formal_Charge:                   0
##########                     HBond_Acceptors:                   8
##########                        HBond_Donors:                   1
##########                         Heavy_Atoms:                  28
##########                          Grid_Score:          -35.023602
##########                     Grid_vdw_energy:          -35.023602
##########                      Grid_es_energy:            0.000000
##########           Internal_energy_repulsive:           27.130381

@<TRIPOS>MOLECULE
ZINC000011972961
 51 54 1 0 0
SMALL
USER_CHARGES


@<TRIPOS>ATOM
      1 C1        -13.9773   -2.6137   58.4977 C.3        @wE      0.0000
      2 C2        -12.6442   -3.3081   58.6053 C.2        @wE      0.0000
      3 C3        -12.3190   -4.3537   57.8347 C.2        @wE      0.0000
      4 C4        -13.1942   -4.9430   56.8139 C.2        @wE      0.0000
      5 O5        -14.0274   -5.7710   57.1313 O.2        @wE      0.0000
      6 N6        -13.0748   -4.5668   55.5253 N.am       @wE      0.0000
      7 C7        -13.9481   -5.1550   54.5066 C.3        @wE      0.0000
      8 C8        -12.0716   -3.5699   55.1431 C.3        @wE      0.0000
      9 H9        -11.2541   -3.5569   55.8639 H          @wE      0.0000
     10 C10       -11.5347   -3.8594   53.7201 C.3        @wE      0.0000
     11 C11       -12.3793   -2.8925   52.8517 C.3        @wE      0.0000
     12 O12       -12.5049   -1.7173   53.6809 O.3        @wE      0.0000
     13 C13       -12.7141   -2.1738   55.0309 C.3        @wE      0.0000
     14 S14       -10.7020   -4.9225   58.2128 S.3        @wE      0.0000
     15 C15       -10.5024   -3.6861   59.4473 C.ar       @wE      0.0000
     16 N16        -9.4792   -3.4104   60.2638 N.ar       @wE      0.0000
     17 C17        -9.5467   -2.4212   61.1252 C.ar       @wE      0.0000
     18 N18       -10.6153   -1.6528   61.2321 N.ar       @wE      0.0000
     19 C19       -11.6801   -1.8451   60.4684 C.ar       @wE      0.0000
     20 N20       -12.7886   -1.0324   60.5936 N.pl3      @wE      0.0000
     21 C21       -12.6450    0.3258   61.1236 C.3        @wE      0.0000
     22 C22       -13.1060    0.3566   62.5580 C.ar       @wE      0.0000
     23 N23       -14.2598   -0.1922   62.8836 N.ar       @wE      0.0000
     24 C24       -14.7030   -0.1894   64.1258 C.ar       @wE      0.0000
     25 C25       -16.0289   -0.8307   64.4448 C.3        @wE      0.0000
     26 C26       -13.9657    0.3944   65.1381 C.ar       @wE      0.0000
     27 C27       -12.7469    0.9818   64.8339 C.ar       @wE      0.0000
     28 C28       -12.3117    0.9551   63.5180 C.ar       @wE      0.0000
     29 C29       -11.6611   -2.8998   59.5126 C.ar       @wE      0.0000
     30 H30       -13.8344   -1.6144   58.0864 H          @wE      0.0000
     31 H31       -14.6334   -3.1862   57.8419 H          @wE      0.0000
     32 H32       -14.4286   -2.5382   59.4871 H          @wE      0.0000
     33 H33       -14.9788   -4.8539   54.6939 H          @wE      0.0000
     34 H34       -13.6414   -4.8069   53.5202 H          @wE      0.0000
     35 H35       -13.8739   -6.2417   54.5478 H          @wE      0.0000
     36 H36       -10.4737   -3.6203   53.6487 H          @wE      0.0000
     37 H37       -11.7184   -4.8963   53.4385 H          @wE      0.0000
     38 H38       -11.8576   -2.6542   51.9247 H          @wE      0.0000
     39 H39       -13.3594   -3.3211   52.6424 H          @wE      0.0000
     40 H40       -13.7820   -2.2398   55.2386 H          @wE      0.0000
     41 H41       -12.2400   -1.4870   55.7322 H          @wE      0.0000
     42 H42        -8.7001   -2.2300   61.7678 H          @wE      0.0000
     43 H43       -13.6627   -1.3605   60.3306 H          @wE      0.0000
     44 H44       -11.5989    0.6275   61.0715 H          @wE      0.0000
     45 H45       -13.2510    1.0124   60.5324 H          @wE      0.0000
     46 H46       -15.8743   -1.8807   64.6930 H          @wE      0.0000
     47 H47       -16.4847   -0.3202   65.2931 H          @wE      0.0000
     48 H48       -16.6868   -0.7552   63.5789 H          @wE      0.0000
     49 H49       -14.3341    0.3935   66.1534 H          @wE      0.0000
     50 H50       -12.1491    1.4457   65.6046 H          @wE      0.0000
     51 H51       -11.3674    1.4025   63.2452 H          @wE      0.0000
@<TRIPOS>BOND
     1     1     2    1
     2     1    30    1
     3     1    31    1
     4     1    32    1
     5     2    29    1
     6     2     3    2
     7     3     4    1
     8     3    14    1
     9     4     5    2
    10     4     6   am
    11     6     7    1
    12     6     8    1
    13     7    33    1
    14     7    34    1
    15     7    35    1
    16     8     9    1
    17     8    13    1
    18     8    10    1
    19    10    11    1
    20    10    36    1
    21    10    37    1
    22    11    12    1
    23    11    38    1
    24    11    39    1
    25    12    13    1
    26    13    40    1
    27    13    41    1
    28    14    15    1
    29    15    29   ar
    30    15    16   ar
    31    16    17   ar
    32    17    18   ar
    33    17    42    1
    34    18    19   ar
    35    19    20    1
    36    19    29   ar
    37    20    21    1
    38    20    43    1
    39    21    22    1
    40    21    44    1
    41    21    45    1
    42    22    28   ar
    43    22    23   ar
    44    23    24   ar
    45    24    25    1
    46    24    26   ar
    47    25    46    1
    48    25    47    1
    49    25    48    1
    50    26    27   ar
    51    26    49    1
    52    27    28   ar
    53    27    50    1
    54    28    51    1
@<TRIPOS>SUBSTRUCTURE
     1 @wE        1 TEMP              0 ****  ****    0 ROOT


##########                                Name:    ZINC000174621331
##########                DOCK_Rotatable_Bonds:                   8
##########                         Heavy_Atoms:                  25
##########                    Molecular_Weight:             366.438
##########                DOCK_Rotatable_Bonds:                   8
##########                       Formal_Charge:        -5.96046e-08
##########                     HBond_Acceptors:                   8
##########                        HBond_Donors:                   3
##########                         Heavy_Atoms:                  25
##########                          Grid_Score:          -35.019356
##########                     Grid_vdw_energy:          -31.835878
##########                      Grid_es_energy:           -3.183477
##########           Internal_energy_repulsive:           13.416979

@<TRIPOS>MOLECULE
ZINC000174621331
 47 48 1 0 0
SMALL
USER_CHARGES


@<TRIPOS>ATOM
      1 C1         -8.2069    4.3329   67.6018 C.3     1  ZINC000174621331    0.0300
      2 O2         -7.7654    3.3064   66.7110 O.3     1  ZINC000174621331   -0.3800
      3 C3         -7.6730    2.0140   67.3136 C.3     1  ZINC000174621331    0.0500
      4 C4         -7.1950    0.9992   66.2732 C.3     1  ZINC000174621331    0.2400
      5 H5         -7.2285   -0.0029   66.7008 H       1  ZINC000174621331    0.1300
      6 N6         -8.0670    1.0578   65.0973 N.am    1  ZINC000174621331   -0.7200
      7 C7         -8.7746   -0.0284   64.7284 C.2     1  ZINC000174621331    0.5600
      8 O8         -8.6904   -1.0560   65.3722 O.2     1  ZINC000174621331   -0.5300
      9 C9         -9.6531    0.0301   63.5408 C.ar    1  ZINC000174621331   -0.1600
     10 C10       -10.5944    1.0527   63.4150 C.ar    1  ZINC000174621331   -0.0200
     11 C11       -11.4110    1.1018   62.3039 C.ar    1  ZINC000174621331   -0.1100
     12 C12       -12.4280    2.2053   62.1664 C.3     1  ZINC000174621331   -0.1200
     13 C13       -11.2978    0.1404   61.3156 C.ar    1  ZINC000174621331    0.0400
     14 C14       -12.1927    0.2006   60.1045 C.3     1  ZINC000174621331   -0.1600
     15 C15       -10.3662   -0.8761   61.4340 C.ar    1  ZINC000174621331   -0.6800
     16 S16       -10.2300   -2.0952   60.1691 S.o2    1  ZINC000174621331    2.7000
     17 N17        -8.9909   -3.1077   60.5956 N.am    1  ZINC000174621331   -1.2500
     18 O18       -11.4197   -2.8698   60.2286 O.2     1  ZINC000174621331   -0.9500
     19 O19        -9.8050   -1.4122   58.9977 O.2     1  ZINC000174621331   -0.9600
     20 C20        -9.5409   -0.9341   62.5376 C.ar    1  ZINC000174621331    0.0400
     21 C21        -5.7809    1.3249   65.8665 C.2     1  ZINC000174621331   -0.0200
     22 C22        -4.8000    1.7348   66.6907 C.2     1  ZINC000174621331   -0.1900
     23 C23        -3.6473    1.9228   65.8938 C.2     1  ZINC000174621331   -0.2100
     24 C24        -3.9928    1.6165   64.6304 C.2     1  ZINC000174621331    0.0000
     25 C25        -3.0827    1.6692   63.4304 C.3     1  ZINC000174621331   -0.0800
     26 O26        -5.2847    1.2494   64.6208 O.3     1  ZINC000174621331   -0.1600
     27 H27        -9.1978    4.0833   67.9812 H       1  ZINC000174621331    0.0400
     28 H28        -7.5090    4.4157   68.4351 H       1  ZINC000174621331    0.0400
     29 H29        -8.2504    5.2827   67.0687 H       1  ZINC000174621331    0.0900
     30 H30        -6.9634    2.0485   68.1402 H       1  ZINC000174621331    0.0700
     31 H31        -8.6527    1.7168   67.6877 H       1  ZINC000174621331    0.0700
     32 H32        -8.1350    1.8782   64.5843 H       1  ZINC000174621331    0.4100
     33 H33       -10.6838    1.8038   64.1859 H       1  ZINC000174621331    0.1400
     34 H34       -11.9777    3.0518   61.6478 H       1  ZINC000174621331    0.0800
     35 H35       -13.2829    1.8425   61.5957 H       1  ZINC000174621331    0.0800
     36 H36       -12.7589    2.5198   63.1561 H       1  ZINC000174621331    0.0700
     37 H37       -11.7129    0.7957   59.3275 H       1  ZINC000174621331    0.1100
     38 H38       -12.3690   -0.8087   59.7325 H       1  ZINC000174621331    0.0700
     39 H39       -13.1434    0.6583   60.3777 H       1  ZINC000174621331    0.0900
     40 H40        -8.0944   -2.7555   60.7102 H       1  ZINC000174621331    0.4200
     41 H41        -9.1616   -4.0529   60.7307 H       1  ZINC000174621331    0.4200
     42 H42        -8.8139   -1.7277   62.6286 H       1  ZINC000174621331    0.1600
     43 H43        -4.8781    1.8909   67.7564 H       1  ZINC000174621331    0.1500
     44 H44        -2.6760    2.2499   66.2342 H       1  ZINC000174621331    0.1500
     45 H45        -2.5919    0.7043   63.3040 H       1  ZINC000174621331    0.0800
     46 H46        -3.6681    1.8985   62.5402 H       1  ZINC000174621331    0.0800
     47 H47        -2.3296    2.4431   63.5793 H       1  ZINC000174621331    0.0900
@<TRIPOS>BOND
     1     1     2    1
     2     1    27    1
     3     1    28    1
     4     1    29    1
     5     2     3    1
     6     3     4    1
     7     3    30    1
     8     3    31    1
     9     4     5    1
    10     4     6    1
    11     4    21    1
    12     6     7   am
    13     6    32    1
    14     7     8    2
    15     7     9    1
    16     9    20   ar
    17     9    10   ar
    18    10    11   ar
    19    10    33    1
    20    11    12    1
    21    11    13   ar
    22    12    34    1
    23    12    35    1
    24    12    36    1
    25    13    14    1
    26    13    15   ar
    27    14    37    1
    28    14    38    1
    29    14    39    1
    30    15    16    1
    31    15    20   ar
    32    16    17   am
    33    16    18    2
    34    16    19    2
    35    17    40    1
    36    17    41    1
    37    20    42    1
    38    21    26    1
    39    21    22    2
    40    22    23    1
    41    22    43    1
    42    23    24    2
    43    23    44    1
    44    24    25    1
    45    24    26    1
    46    25    45    1
    47    25    46    1
    48    25    47    1
@<TRIPOS>SUBSTRUCTURE
     1 ZINC000174621331        1 TEMP              0 ****  ****    0 ROOT


##########                                Name:    ZINC001181473921
##########                DOCK_Rotatable_Bonds:                   9
##########                         Heavy_Atoms:                  24
##########                    Molecular_Weight:             357.431
##########                DOCK_Rotatable_Bonds:                   9
##########                       Formal_Charge:        -5.96046e-08
##########                     HBond_Acceptors:                   9
##########                        HBond_Donors:                   4
##########                         Heavy_Atoms:                  24
##########                          Grid_Score:          -35.008484
##########                     Grid_vdw_energy:          -34.365589
##########                      Grid_es_energy:           -0.642896
##########           Internal_energy_repulsive:           14.404257

@<TRIPOS>MOLECULE
ZINC001181473921
 47 48 1 0 0
SMALL
USER_CHARGES


@<TRIPOS>ATOM
      1 C1         -9.5769   -2.8860   60.6073 C.3     1  ZINC001181473921   -0.1300
      2 C2         -9.8969   -1.6805   61.4531 C.2     1  ZINC001181473921    0.1900
      3 C3         -9.1834   -1.4455   62.5750 C.2     1  ZINC001181473921   -0.2400
      4 C4         -9.4777   -0.3196   63.3696 C.2     1  ZINC001181473921    0.2500
      5 O5         -8.7706   -0.0700   64.4976 O.3     1  ZINC001181473921   -0.4600
      6 C6        -10.4993    0.5266   62.9797 C.2     1  ZINC001181473921   -0.3700
      7 C7        -11.2108    0.2413   61.8086 C.2     1  ZINC001181473921    0.5300
      8 O8        -12.1156    0.9791   61.4504 O.2     1  ZINC001181473921   -0.5500
      9 N9        -10.8962   -0.8414   61.0736 N.am    1  ZINC001181473921   -0.5000
     10 C10       -11.6503   -1.1258   59.8501 C.3     1  ZINC001181473921    0.1000
     11 C11       -12.8757   -1.9756   60.1924 C.3     1  ZINC001181473921   -0.1600
     12 C12       -13.6041   -2.3403   58.9244 C.2     1  ZINC001181473921    0.5200
     13 O13       -14.5404   -1.6674   58.5481 O.2     1  ZINC001181473921   -0.5300
     14 N14       -13.2152   -3.4140   58.2088 N.am    1  ZINC001181473921   -0.7200
     15 C15       -13.9245   -3.7695   56.9772 C.3     1  ZINC001181473921    0.1400
     16 H16       -14.9609   -3.4344   57.0196 H       1  ZINC001181473921    0.1000
     17 C17       -13.8510   -5.2955   56.7224 C.3     1  ZINC001181473921   -0.1300
     18 C18       -14.0588   -5.4353   55.2002 C.3     1  ZINC001181473921   -0.1500
     19 C19       -13.6470   -4.0910   54.5751 C.3     1  ZINC001181473921   -0.0800
     20 H20       -14.4953   -3.6454   54.0553 H       1  ZINC001181473921    0.0900
     21 C21       -12.4865   -4.2999   53.6001 C.3     1  ZINC001181473921   -0.6200
     22 S22       -12.2419   -2.7936   52.6194 S.o2    1  ZINC001181473921    2.6100
     23 N23       -13.6858   -2.5686   51.8405 N.am    1  ZINC001181473921   -1.2500
     24 O24       -12.1210   -1.6603   53.4680 O.2     1  ZINC001181473921   -0.9600
     25 O25       -11.3110   -3.0267   51.5715 O.2     1  ZINC001181473921   -0.9600
     26 C26       -13.2062   -3.1768   55.7395 C.3     1  ZINC001181473921   -0.1200
     27 H27        -9.3745   -2.5687   59.5843 H       1  ZINC001181473921    0.0900
     28 H28        -8.6995   -3.3908   61.0115 H       1  ZINC001181473921    0.1000
     29 H29       -10.4252   -3.5704   60.6143 H       1  ZINC001181473921    0.0900
     30 H30        -8.3893   -2.1187   62.8627 H       1  ZINC001181473921    0.1500
     31 H31        -8.8096    0.8507   64.7906 H       1  ZINC001181473921    0.4100
     32 H32       -10.7451    1.3962   63.5712 H       1  ZINC001181473921    0.1500
     33 H33       -11.9731   -0.1889   59.3963 H       1  ZINC001181473921    0.1000
     34 H34       -11.0155   -1.6690   59.1500 H       1  ZINC001181473921    0.1100
     35 H35       -12.5566   -2.8846   60.7023 H       1  ZINC001181473921    0.1100
     36 H36       -13.5410   -1.4083   60.8432 H       1  ZINC001181473921    0.1000
     37 H37       -12.4657   -3.9515   58.5092 H       1  ZINC001181473921    0.4000
     38 H38       -12.8744   -5.6840   57.0114 H       1  ZINC001181473921    0.0700
     39 H39       -14.6435   -5.8115   57.2646 H       1  ZINC001181473921    0.0800
     40 H40       -13.4314   -6.2365   54.8097 H       1  ZINC001181473921    0.0900
     41 H41       -15.1069   -5.6423   54.9839 H       1  ZINC001181473921    0.0800
     42 H42       -11.5774   -4.5210   54.1594 H       1  ZINC001181473921    0.1400
     43 H43       -12.7159   -5.1329   52.9355 H       1  ZINC001181473921    0.1400
     44 H44       -13.8033   -1.8111   51.2461 H       1  ZINC001181473921    0.4100
     45 H45       -14.4141   -3.1943   51.9786 H       1  ZINC001181473921    0.4200
     46 H46       -13.5270   -2.1505   55.5613 H       1  ZINC001181473921    0.0800
     47 H47       -12.1252   -3.2221   55.8719 H       1  ZINC001181473921    0.0800
@<TRIPOS>BOND
     1     1     2    1
     2     1    27    1
     3     1    28    1
     4     1    29    1
     5     2     9    1
     6     2     3    2
     7     3     4    1
     8     3    30    1
     9     4     5    1
    10     4     6    2
    11     5    31    1
    12     6     7    1
    13     6    32    1
    14     7     8    2
    15     7     9   am
    16     9    10    1
    17    10    11    1
    18    10    33    1
    19    10    34    1
    20    11    12    1
    21    11    35    1
    22    11    36    1
    23    12    13    2
    24    12    14   am
    25    14    15    1
    26    14    37    1
    27    15    16    1
    28    15    26    1
    29    15    17    1
    30    17    18    1
    31    17    38    1
    32    17    39    1
    33    18    19    1
    34    18    40    1
    35    18    41    1
    36    19    20    1
    37    19    21    1
    38    19    26    1
    39    21    22    1
    40    21    42    1
    41    21    43    1
    42    22    23   am
    43    22    24    2
    44    22    25    2
    45    23    44    1
    46    23    45    1
    47    26    46    1
    48    26    47    1
@<TRIPOS>SUBSTRUCTURE
     1 ZINC001181473921        1 TEMP              0 ****  ****    0 ROOT


##########                                Name:    ZINC000562561773
##########                DOCK_Rotatable_Bonds:                   6
##########                         Heavy_Atoms:                  26
##########                    Molecular_Weight:             371.466
##########                DOCK_Rotatable_Bonds:                   6
##########                       Formal_Charge:           0.0199999
##########                     HBond_Acceptors:                   9
##########                        HBond_Donors:                   0
##########                         Heavy_Atoms:                  26
##########                          Grid_Score:          -35.006096
##########                     Grid_vdw_energy:          -33.747841
##########                      Grid_es_energy:           -1.258253
##########           Internal_energy_repulsive:           26.643021

@<TRIPOS>MOLECULE
ZINC000562561773
 47 50 1 0 0
SMALL
USER_CHARGES


@<TRIPOS>ATOM
      1 C1        -13.3186   -5.6698   56.4653 C.3     1  ZINC000562561773   -0.1100
      2 C2        -12.6078   -4.8045   57.4740 C.ar    1  ZINC000562561773   -0.0400
      3 C3        -11.2723   -5.0247   57.7513 C.ar    1  ZINC000562561773   -0.1200
      4 C4        -10.6153   -4.2354   58.6745 C.ar    1  ZINC000562561773   -0.0700
      5 C5        -11.2986   -3.2131   59.3298 C.ar    1  ZINC000562561773   -0.0300
      6 C6        -10.5934   -2.3637   60.3220 C.2     1  ZINC000562561773    0.2200
      7 N7         -9.3806   -2.5445   60.7760 N.2     1  ZINC000562561773   -0.3700
      8 O8         -9.1009   -1.6760   61.5750 O.3     1  ZINC000562561773    0.0900
      9 C9        -10.1298   -0.8341   61.7151 C.2     1  ZINC000562561773    0.1900
     10 C10       -10.1807    0.3756   62.6122 C.3     1  ZINC000562561773   -0.0100
     11 C11        -9.4598    0.0672   63.9258 C.3     1  ZINC000562561773   -0.1200
     12 S12        -9.5359    1.5146   65.0101 S.3     1  ZINC000562561773    0.0600
     13 C13       -11.2822    1.6826   65.1741 C.2     1  ZINC000562561773    0.2100
     14 N14       -12.1966    0.9164   64.6198 N.2     1  ZINC000562561773   -0.3300
     15 N15       -13.3737    1.3145   64.9438 N.2     1  ZINC000562561773   -0.0300
     16 N16       -13.3017    2.3453   65.7146 N.2     1  ZINC000562561773   -0.0700
     17 N17       -11.9356    2.6212   65.8990 N.pl3   1  ZINC000562561773   -0.3600
     18 C18       -11.3455    3.6987   66.6969 C.3     1  ZINC000562561773    0.0800
     19 N19       -11.0828   -1.2546   60.9211 N.2     1  ZINC000562561773   -0.4600
     20 C20       -12.6444   -2.9901   59.0514 C.ar    1  ZINC000562561773   -0.1100
     21 C21       -13.2960   -3.7834   58.1187 C.ar    1  ZINC000562561773    0.0800
     22 N22       -14.6461   -3.5632   57.8355 N.3     1  ZINC000562561773   -0.4800
     23 C23       -15.4857   -3.7846   59.0406 C.3     1  ZINC000562561773    0.0400
     24 C24       -16.7891   -3.0145   58.7109 C.3     1  ZINC000562561773   -0.1200
     25 C25       -16.2722   -1.7646   57.9622 C.3     1  ZINC000562561773   -0.1300
     26 C26       -14.8812   -2.1597   57.4326 C.3     1  ZINC000562561773    0.0400
     27 H27       -13.2227   -5.2261   55.4743 H       1  ZINC000562561773    0.0700
     28 H28       -12.8736   -6.6648   56.4624 H       1  ZINC000562561773    0.0600
     29 H29       -14.3734   -5.7442   56.7296 H       1  ZINC000562561773    0.0800
     30 H30       -10.7407   -5.8168   57.2448 H       1  ZINC000562561773    0.1400
     31 H31        -9.5714   -4.4109   58.8889 H       1  ZINC000562561773    0.1400
     32 H32        -9.6921    1.2153   62.1179 H       1  ZINC000562561773    0.1200
     33 H33       -11.2200    0.6309   62.8192 H       1  ZINC000562561773    0.1300
     34 H34        -9.9420   -0.7790   64.4151 H       1  ZINC000562561773    0.1100
     35 H35        -8.4179   -0.1778   63.7197 H       1  ZINC000562561773    0.1100
     36 H36       -11.1861    3.3498   67.7172 H       1  ZINC000562561773    0.1000
     37 H37       -10.3911    3.9934   66.2605 H       1  ZINC000562561773    0.1000
     38 H38       -12.0202    4.5547   66.7069 H       1  ZINC000562561773    0.1100
     39 H39       -13.1782   -2.1991   59.5570 H       1  ZINC000562561773    0.1300
     40 H40       -15.6904   -4.8465   59.1771 H       1  ZINC000562561773    0.0900
     41 H41       -15.0058   -3.3673   59.9259 H       1  ZINC000562561773    0.0500
     42 H42       -17.4363   -3.6097   58.0668 H       1  ZINC000562561773    0.0800
     43 H43       -17.3100   -2.7288   59.6248 H       1  ZINC000562561773    0.0700
     44 H44       -16.9364   -1.5181   57.1338 H       1  ZINC000562561773    0.0800
     45 H45       -16.1905   -0.9204   58.6469 H       1  ZINC000562561773    0.0700
     46 H46       -14.1198   -1.5150   57.8716 H       1  ZINC000562561773    0.0500
     47 H47       -14.8603   -2.0769   56.3459 H       1  ZINC000562561773    0.0800
@<TRIPOS>BOND
     1     1     2    1
     2     1    27    1
     3     1    28    1
     4     1    29    1
     5     2    21   ar
     6     2     3   ar
     7     3     4   ar
     8     3    30    1
     9     4     5   ar
    10     4    31    1
    11     5     6    1
    12     5    20   ar
    13     6    19    1
    14     6     7    2
    15     7     8    1
    16     8     9    1
    17     9    10    1
    18     9    19    2
    19    10    11    1
    20    10    32    1
    21    10    33    1
    22    11    12    1
    23    11    34    1
    24    11    35    1
    25    12    13    1
    26    13    17    1
    27    13    14    2
    28    14    15    1
    29    15    16    2
    30    16    17    1
    31    17    18    1
    32    18    36    1
    33    18    37    1
    34    18    38    1
    35    20    21   ar
    36    20    39    1
    37    21    22    1
    38    22    26    1
    39    22    23    1
    40    23    24    1
    41    23    40    1
    42    23    41    1
    43    24    25    1
    44    24    42    1
    45    24    43    1
    46    25    26    1
    47    25    44    1
    48    25    45    1
    49    26    46    1
    50    26    47    1
@<TRIPOS>SUBSTRUCTURE
     1 ZINC000562561773        1 TEMP              0 ****  ****    0 ROOT


##########                                Name:    ZINC000444811358
##########                DOCK_Rotatable_Bonds:                  11
##########                         Heavy_Atoms:                  27
##########                    Molecular_Weight:             374.455
##########                DOCK_Rotatable_Bonds:                  11
##########                       Formal_Charge:          0.00999966
##########                     HBond_Acceptors:                   6
##########                        HBond_Donors:                   2
##########                         Heavy_Atoms:                  27
##########                          Grid_Score:          -34.992592
##########                     Grid_vdw_energy:          -35.416084
##########                      Grid_es_energy:            0.423491
##########           Internal_energy_repulsive:           25.006226

@<TRIPOS>MOLECULE
ZINC000444811358
 54 55 1 0 0
SMALL
USER_CHARGES


@<TRIPOS>ATOM
      1 C1         -9.9955    0.2314   63.4333 C.3     1  ZINC000444811358   -0.1100
      2 C2        -10.4574   -0.6864   62.3309 C.ar    1  ZINC000444811358   -0.1300
      3 C3        -11.6836   -0.4777   61.7280 C.ar    1  ZINC000444811358   -0.0700
      4 C4        -12.1105   -1.3175   60.7174 C.ar    1  ZINC000444811358   -0.1500
      5 C5        -11.3068   -2.3725   60.3061 C.ar    1  ZINC000444811358    0.1700
      6 N6        -11.7373   -3.2237   59.2825 N.am    1  ZINC000444811358   -0.6800
      7 C7        -11.2763   -3.0552   58.0272 C.2     1  ZINC000444811358    0.5200
      8 O8        -10.4881   -2.1657   57.7850 O.2     1  ZINC000444811358   -0.5000
      9 C9        -11.7400   -3.9720   56.9247 C.3     1  ZINC000444811358    0.0200
     10 N10       -13.0900   -3.5805   56.4978 N.3     1  ZINC000444811358   -0.5000
     11 C11       -13.2004   -3.5834   55.0330 C.3     1  ZINC000444811358    0.0200
     12 C12       -12.9817   -2.1651   54.5022 C.3     1  ZINC000444811358    0.1100
     13 H13       -13.7141   -1.9515   53.7239 H       1  ZINC000444811358    0.1200
     14 O14       -13.1344   -1.2281   55.5702 O.3     1  ZINC000444811358   -0.5400
     15 C15       -11.5711   -2.0501   53.9207 C.3     1  ZINC000444811358    0.0300
     16 O16       -11.2663   -0.6751   53.6788 O.3     1  ZINC000444811358   -0.3000
     17 C17       -10.0882   -0.4044   53.0578 C.ar    1  ZINC000444811358    0.1300
     18 C18        -9.4713   -1.3764   52.2837 C.ar    1  ZINC000444811358   -0.2100
     19 C19        -8.2741   -1.0985   51.6530 C.ar    1  ZINC000444811358   -0.0800
     20 C20        -7.6904    0.1471   51.7931 C.ar    1  ZINC000444811358   -0.1600
     21 C21        -8.3030    1.1174   52.5643 C.ar    1  ZINC000444811358   -0.0800
     22 C22        -9.5034    0.8465   53.1921 C.ar    1  ZINC000444811358   -0.1500
     23 C23       -14.1068   -4.4502   57.1041 C.3     1  ZINC000444811358    0.0700
     24 C24       -15.4802   -3.7853   56.9901 C.3     1  ZINC000444811358   -0.1400
     25 C25       -14.1289   -5.7947   56.3742 C.3     1  ZINC000444811358   -0.1900
     26 C26       -10.0750   -2.5812   60.9121 C.ar    1  ZINC000444811358   -0.1500
     27 C27        -9.6501   -1.7344   61.9199 C.ar    1  ZINC000444811358    0.1200
     28 F28        -8.4520   -1.9358   62.5107 F       1  ZINC000444811358   -0.1300
     29 H29        -9.4421    1.0661   63.0031 H       1  ZINC000444811358    0.0700
     30 H30       -10.8607    0.6107   63.9769 H       1  ZINC000444811358    0.0700
     31 H31        -9.3493   -0.3188   64.1173 H       1  ZINC000444811358    0.0700
     32 H32       -12.3089    0.3428   62.0475 H       1  ZINC000444811358    0.1400
     33 H33       -13.0690   -1.1535   60.2477 H       1  ZINC000444811358    0.1300
     34 H34       -12.3676   -3.9351   59.4761 H       1  ZINC000444811358    0.4100
     35 H35       -11.0560   -3.8985   56.0793 H       1  ZINC000444811358    0.1300
     36 H36       -11.7579   -4.9989   57.2896 H       1  ZINC000444811358    0.0700
     37 H37       -12.4462   -4.2489   54.6131 H       1  ZINC000444811358    0.0500
     38 H38       -14.1925   -3.9304   54.7441 H       1  ZINC000444811358    0.1000
     39 H39       -13.2096   -0.3089   55.2793 H       1  ZINC000444811358    0.3700
     40 H40       -10.8517   -2.4628   54.6279 H       1  ZINC000444811358    0.0600
     41 H41       -11.5182   -2.6043   52.9836 H       1  ZINC000444811358    0.0700
     42 H42        -9.9266   -2.3497   52.1745 H       1  ZINC000444811358    0.1300
     43 H43        -7.7935   -1.8548   51.0502 H       1  ZINC000444811358    0.1200
     44 H44        -6.7542    0.3623   51.2994 H       1  ZINC000444811358    0.1200
     45 H45        -7.8449    2.0895   52.6725 H       1  ZINC000444811358    0.1300
     46 H46        -9.9815    1.6048   53.7945 H       1  ZINC000444811358    0.1300
     47 H47       -13.8672   -4.6112   58.1552 H       1  ZINC000444811358    0.0900
     48 H48       -15.7783   -3.7447   55.9424 H       1  ZINC000444811358    0.0500
     49 H49       -16.2118   -4.3640   57.5539 H       1  ZINC000444811358    0.0600
     50 H50       -15.4287   -2.7737   57.3927 H       1  ZINC000444811358    0.0700
     51 H51       -13.1506   -6.2682   56.4554 H       1  ZINC000444811358    0.0500
     52 H52       -14.8834   -6.4399   56.8241 H       1  ZINC000444811358    0.0700
     53 H53       -14.3685   -5.6336   55.3232 H       1  ZINC000444811358    0.0600
     54 H54        -9.4480   -3.4012   60.5945 H       1  ZINC000444811358    0.1500
@<TRIPOS>BOND
     1     1     2    1
     2     1    29    1
     3     1    30    1
     4     1    31    1
     5     2    27   ar
     6     2     3   ar
     7     3     4   ar
     8     3    32    1
     9     4     5   ar
    10     4    33    1
    11     5     6    1
    12     5    26   ar
    13     6     7   am
    14     6    34    1
    15     7     8    2
    16     7     9    1
    17     9    10    1
    18     9    35    1
    19     9    36    1
    20    10    11    1
    21    10    23    1
    22    11    12    1
    23    11    37    1
    24    11    38    1
    25    12    13    1
    26    12    14    1
    27    12    15    1
    28    14    39    1
    29    15    16    1
    30    15    40    1
    31    15    41    1
    32    16    17    1
    33    17    22   ar
    34    17    18   ar
    35    18    19   ar
    36    18    42    1
    37    19    20   ar
    38    19    43    1
    39    20    21   ar
    40    20    44    1
    41    21    22   ar
    42    21    45    1
    43    22    46    1
    44    23    24    1
    45    23    25    1
    46    23    47    1
    47    24    48    1
    48    24    49    1
    49    24    50    1
    50    25    51    1
    51    25    52    1
    52    25    53    1
    53    26    27   ar
    54    26    54    1
    55    27    28    1
@<TRIPOS>SUBSTRUCTURE
     1 ZINC000444811358        1 TEMP              0 ****  ****    0 ROOT


##########                                Name:    ZINC001070580102
##########                DOCK_Rotatable_Bonds:                   8
##########                         Heavy_Atoms:                  25
##########                    Molecular_Weight:              349.39
##########                DOCK_Rotatable_Bonds:                   8
##########                       Formal_Charge:          -0.0100003
##########                     HBond_Acceptors:                   9
##########                        HBond_Donors:                   3
##########                         Heavy_Atoms:                  25
##########                          Grid_Score:          -34.989773
##########                     Grid_vdw_energy:          -32.385563
##########                      Grid_es_energy:           -2.604211
##########           Internal_energy_repulsive:           10.229719

@<TRIPOS>MOLECULE
ZINC001070580102
 48 50 1 0 0
SMALL
USER_CHARGES


@<TRIPOS>ATOM
      1 C1         -8.5971    0.5368   64.7286 C.3     1  ZINC001070580102   -0.0800
      2 C2         -9.4699   -0.0956   63.6753 C.2     1  ZINC001070580102   -0.0100
      3 C3         -9.1400   -1.1599   62.9278 C.2     1  ZINC001070580102   -0.1900
      4 C4        -10.2932   -1.4111   62.0510 C.2     1  ZINC001070580102   -0.2500
      5 C5        -10.4288   -2.4749   61.0402 C.2     1  ZINC001070580102    0.6000
      6 O6        -11.5214   -2.9535   60.8040 O.2     1  ZINC001070580102   -0.5300
      7 N7         -9.3417   -2.9173   60.3775 N.am    1  ZINC001070580102   -0.7200
      8 C8         -9.4763   -3.9760   59.3740 C.3     1  ZINC001070580102    0.2000
      9 C9        -10.1566   -3.4230   58.1482 C.2     1  ZINC001070580102    0.2600
     10 N10       -10.9179   -4.0948   57.3230 N.2     1  ZINC001070580102   -0.5100
     11 C11       -11.3509   -3.2916   56.3520 C.2     1  ZINC001070580102    0.2300
     12 C12       -12.2508   -3.6996   55.2143 C.3     1  ZINC001070580102    0.1400
     13 H13       -12.3051   -4.7871   55.1651 H       1  ZINC001070580102    0.0800
     14 C14       -11.6892   -3.1558   53.8979 C.3     1  ZINC001070580102    0.0800
     15 O15       -12.5856   -3.4815   52.8323 O.3     1  ZINC001070580102   -0.3800
     16 C16       -13.9056   -2.9608   53.0107 C.3     1  ZINC001070580102    0.0600
     17 C17       -14.4897   -3.5026   54.3181 C.3     1  ZINC001070580102    0.0200
     18 N18       -13.5970   -3.1503   55.4318 N.3     1  ZINC001070580102   -0.5200
     19 C19       -14.1511   -3.6039   56.7144 C.3     1  ZINC001070580102    0.0600
     20 C20       -14.4301   -2.3926   57.6065 C.3     1  ZINC001070580102    0.0800
     21 O21       -14.6487   -1.2402   56.7901 O.3     1  ZINC001070580102   -0.5700
     22 N22       -10.8691   -2.0922   56.5469 N.2     1  ZINC001070580102   -0.2700
     23 N23       -10.0921   -2.1519   57.7154 N.pl3   1  ZINC001070580102   -0.4700
     24 C24       -11.2117   -0.4540   62.3694 C.2     1  ZINC001070580102    0.0900
     25 C25       -12.5709   -0.2924   61.7388 C.3     1  ZINC001070580102   -0.0900
     26 O26       -10.7036    0.3124   63.3392 O.3     1  ZINC001070580102   -0.1700
     27 H27        -9.1223    1.3798   65.1776 H       1  ZINC001070580102    0.0800
     28 H28        -8.3659   -0.1992   65.4987 H       1  ZINC001070580102    0.0900
     29 H29        -7.6717    0.8870   64.2713 H       1  ZINC001070580102    0.0900
     30 H30        -8.2159   -1.7179   62.9627 H       1  ZINC001070580102    0.1500
     31 H31        -8.4704   -2.5347   60.5650 H       1  ZINC001070580102    0.4000
     32 H32        -8.4881   -4.3486   59.1041 H       1  ZINC001070580102    0.1000
     33 H33       -10.0725   -4.7914   59.7837 H       1  ZINC001070580102    0.1100
     34 H34       -11.5839   -2.0731   53.9668 H       1  ZINC001070580102    0.0700
     35 H35       -10.7152   -3.6053   53.7045 H       1  ZINC001070580102    0.1000
     36 H36       -13.8647   -1.8724   53.0539 H       1  ZINC001070580102    0.0600
     37 H37       -14.5346   -3.2692   52.1757 H       1  ZINC001070580102    0.1000
     38 H38       -15.4730   -3.0637   54.4869 H       1  ZINC001070580102    0.1200
     39 H39       -14.5804   -4.5870   54.2543 H       1  ZINC001070580102    0.0400
     40 H40       -15.0798   -4.1463   56.5375 H       1  ZINC001070580102    0.0500
     41 H41       -13.4348   -4.2610   57.2076 H       1  ZINC001070580102    0.0800
     42 H42       -15.3167   -2.5830   58.2111 H       1  ZINC001070580102    0.0500
     43 H43       -13.5753   -2.2180   58.2599 H       1  ZINC001070580102    0.0600
     44 H44       -15.3928   -0.6920   57.0747 H       1  ZINC001070580102    0.3800
     45 H45        -9.6012   -1.4224   58.1249 H       1  ZINC001070580102    0.4400
     46 H46       -13.3022   -0.8769   62.2970 H       1  ZINC001070580102    0.0900
     47 H47       -12.8567    0.7594   61.7564 H       1  ZINC001070580102    0.0800
     48 H48       -12.5368   -0.6424   60.7072 H       1  ZINC001070580102    0.1100
@<TRIPOS>BOND
     1     1     2    1
     2     1    27    1
     3     1    28    1
     4     1    29    1
     5     2    26    1
     6     2     3    2
     7     3     4    1
     8     3    30    1
     9     4     5    1
    10     4    24    2
    11     5     6    2
    12     5     7   am
    13     7     8    1
    14     7    31    1
    15     8     9    1
    16     8    32    1
    17     8    33    1
    18     9    23    1
    19     9    10    2
    20    10    11    1
    21    11    12    1
    22    11    22    2
    23    12    13    1
    24    12    18    1
    25    12    14    1
    26    14    15    1
    27    14    34    1
    28    14    35    1
    29    15    16    1
    30    16    17    1
    31    16    36    1
    32    16    37    1
    33    17    18    1
    34    17    38    1
    35    17    39    1
    36    18    19    1
    37    19    20    1
    38    19    40    1
    39    19    41    1
    40    20    21    1
    41    20    42    1
    42    20    43    1
    43    21    44    1
    44    22    23    1
    45    23    45    1
    46    24    25    1
    47    24    26    1
    48    25    46    1
    49    25    47    1
    50    25    48    1
@<TRIPOS>SUBSTRUCTURE
     1 ZINC001070580102        1 TEMP              0 ****  ****    0 ROOT


##########                                Name:    ZINC000022858610
##########                DOCK_Rotatable_Bonds:                   9
##########                         Heavy_Atoms:                  26
##########                    Molecular_Weight:             369.343
##########                DOCK_Rotatable_Bonds:                   9
##########                       Formal_Charge:          0.00999956
##########                     HBond_Acceptors:                   9
##########                        HBond_Donors:                   2
##########                         Heavy_Atoms:                  26
##########                          Grid_Score:          -34.986088
##########                     Grid_vdw_energy:          -33.540298
##########                      Grid_es_energy:           -1.445788
##########           Internal_energy_repulsive:           20.004181

@<TRIPOS>MOLECULE
ZINC000022858610
 44 45 1 0 0
SMALL
USER_CHARGES


@<TRIPOS>ATOM
      1 C1        -14.8501   -3.5472   55.5761 C.3     1  <0>         0.0100
      2 N2        -13.9858   -4.2652   56.5224 N.3     1  <0>        -0.5300
      3 C3        -14.6793   -5.4294   57.0898 C.3     1  <0>         0.0200
      4 C4        -12.7238   -4.6636   55.8848 C.3     1  <0>         0.1500
      5 H5        -12.8978   -5.5269   55.2426 H       1  <0>         0.1200
      6 C6        -11.7007   -5.0276   56.9626 C.3     1  <0>         0.1300
      7 N7        -11.7402   -4.0266   58.0315 N.am    1  <0>        -0.6800
      8 C8        -10.7604   -3.9891   58.9561 C.2     1  <0>         0.5100
      9 O9         -9.8446   -4.7835   58.9025 O.2     1  <0>        -0.5100
     10 C10       -10.8016   -2.9696   60.0469 C.2     1  <0>         0.5200
     11 O11       -11.7276   -2.9574   60.8315 O.2     1  <0>        -0.4900
     12 N12        -9.8105   -2.0632   60.1599 N.am    1  <0>        -0.6500
     13 C13        -9.8492   -1.1095   61.1804 C.ar    1  <0>         0.1900
     14 C14        -9.2963   -1.3958   62.4221 C.ar    1  <0>        -0.1200
     15 C15        -9.3364   -0.4507   63.4286 C.ar    1  <0>        -0.0700
     16 C16        -9.9258    0.7792   63.2011 C.ar    1  <0>        -0.1300
     17 C17       -10.4777    1.0675   61.9661 C.ar    1  <0>        -0.0500
     18 C18       -10.4357    0.1296   60.9535 C.ar    1  <0>        -0.2100
     19 C19       -11.0372    0.4445   59.6082 C.3     1  <0>         0.5100
     20 F20       -12.1957   -0.3180   59.4253 F       1  <0>        -0.1700
     21 F21       -11.3597    1.8045   59.5483 F       1  <0>        -0.1800
     22 F22       -10.1144    0.1394   58.6018 F       1  <0>        -0.1700
     23 C23       -12.1963   -3.5200   55.0572 C.2     1  <0>        -0.0500
     24 C24       -12.4307   -3.3231   53.7473 C.2     1  <0>        -0.1900
     25 C25       -11.7481   -2.1401   53.3824 C.2     1  <0>        -0.2100
     26 C26       -11.1373   -1.6847   54.4909 C.2     1  <0>        -0.0400
     27 O27       -11.4170   -2.5213   55.5037 O.3     1  <0>        -0.1700
     28 H28       -15.6871   -3.1022   56.1141 H       1  <0>         0.0700
     29 H29       -14.2763   -2.7623   55.0835 H       1  <0>         0.0700
     30 H30       -15.2282   -4.2445   54.8285 H       1  <0>         0.0500
     31 H31       -14.9611   -6.1111   56.2873 H       1  <0>         0.0300
     32 H32       -14.0169   -5.9427   57.7868 H       1  <0>         0.0700
     33 H33       -15.5744   -5.0980   57.6161 H       1  <0>         0.0800
     34 H34       -11.9398   -6.0082   57.3742 H       1  <0>         0.0900
     35 H35       -10.7033   -5.0513   56.5236 H       1  <0>         0.0800
     36 H36       -12.4715   -3.3907   58.0737 H       1  <0>         0.4200
     37 H37        -9.0706   -2.0730   59.5330 H       1  <0>         0.4300
     38 H38        -8.8361   -2.3563   62.6005 H       1  <0>         0.1500
     39 H39        -8.9070   -0.6727   64.3944 H       1  <0>         0.1400
     40 H40        -9.9557    1.5164   63.9899 H       1  <0>         0.1400
     41 H41       -10.9380    2.0288   61.7921 H       1  <0>         0.1500
     42 H42       -13.0257   -3.9491   53.0989 H       1  <0>         0.1500
     43 H43       -11.7217   -1.6887   52.4015 H       1  <0>         0.1500
     44 H44       -10.5286   -0.7950   54.5564 H       1  <0>         0.2000
@<TRIPOS>BOND
     1     1     2    1
     2     1    28    1
     3     1    29    1
     4     1    30    1
     5     2     3    1
     6     2     4    1
     7     3    31    1
     8     3    32    1
     9     3    33    1
    10     4     5    1
    11     4     6    1
    12     4    23    1
    13     6     7    1
    14     6    34    1
    15     6    35    1
    16     7     8   am
    17     7    36    1
    18     8     9    2
    19     8    10    1
    20    10    11    2
    21    10    12   am
    22    12    13    1
    23    12    37    1
    24    13    18   ar
    25    13    14   ar
    26    14    15   ar
    27    14    38    1
    28    15    16   ar
    29    15    39    1
    30    16    17   ar
    31    16    40    1
    32    17    18   ar
    33    17    41    1
    34    18    19    1
    35    19    20    1
    36    19    21    1
    37    19    22    1
    38    23    27    1
    39    23    24    2
    40    24    25    1
    41    24    42    1
    42    25    26    2
    43    25    43    1
    44    26    27    1
    45    26    44    1
@<TRIPOS>SUBSTRUCTURE
     1 <0>         1 TEMP              0 ****  ****    0 ROOT


##########                                Name:    ZINC001119787528
##########                DOCK_Rotatable_Bonds:                   6
##########                         Heavy_Atoms:                  27
##########                    Molecular_Weight:             362.434
##########                DOCK_Rotatable_Bonds:                   6
##########                       Formal_Charge:          -0.0199998
##########                     HBond_Acceptors:                   7
##########                        HBond_Donors:                   1
##########                         Heavy_Atoms:                  27
##########                          Grid_Score:          -34.973663
##########                     Grid_vdw_energy:          -33.972340
##########                      Grid_es_energy:           -1.001323
##########           Internal_energy_repulsive:            9.108705

@<TRIPOS>MOLECULE
ZINC001119787528
 49 52 1 0 0
SMALL
USER_CHARGES


@<TRIPOS>ATOM
      1 C1        -11.7770    2.0063   66.1090 C.3     1  ZINC001119787528   -0.1700
      2 C2        -10.8220    2.3861   64.9756 C.3     1  ZINC001119787528    0.1000
      3 N3        -10.1838    1.1770   64.4491 N.pl3   1  ZINC001119787528   -0.4500
      4 C4         -9.2605    0.4152   65.0798 C.2     1  ZINC001119787528    0.1800
      5 N5         -8.9260   -0.5761   64.2952 N.2     1  ZINC001119787528   -0.4800
      6 C6         -9.6137   -0.4819   63.1552 C.2     1  ZINC001119787528   -0.0200
      7 C7        -10.4123    0.6042   63.2346 C.2     1  ZINC001119787528   -0.0100
      8 C8        -11.3585    1.0574   62.1540 C.3     1  ZINC001119787528   -0.0600
      9 C9        -10.9548    0.3917   60.8320 C.3     1  ZINC001119787528    0.1400
     10 N10       -10.6823   -1.0329   61.0741 N.am    1  ZINC001119787528   -0.6200
     11 C11       -11.4464   -1.9878   60.5077 C.2     1  ZINC001119787528    0.7200
     12 O12       -11.2080   -3.1612   60.7182 O.2     1  ZINC001119787528   -0.5600
     13 N13       -12.4749   -1.6419   59.7083 N.am    1  ZINC001119787528   -0.6600
     14 C14       -13.2629   -2.6267   59.1242 C.ar    1  ZINC001119787528    0.4200
     15 C15       -14.6064   -2.7602   59.4756 C.ar    1  ZINC001119787528   -0.2500
     16 C16       -15.3481   -3.7545   58.8664 C.ar    1  ZINC001119787528    0.1600
     17 N17       -14.7641   -4.5425   57.9755 N.ar    1  ZINC001119787528   -0.5300
     18 C18       -13.4923   -4.3904   57.6654 C.ar    1  ZINC001119787528    0.3500
     19 C19       -12.8717   -5.3105   56.6459 C.3     1  ZINC001119787528   -0.0100
     20 C20       -12.7796   -4.6012   55.3194 C.ar    1  ZINC001119787528   -0.0800
     21 C21       -11.6525   -3.8646   55.0063 C.ar    1  ZINC001119787528   -0.1000
     22 C22       -11.5679   -3.2139   53.7897 C.ar    1  ZINC001119787528   -0.1200
     23 C23       -12.6103   -3.3001   52.8858 C.ar    1  ZINC001119787528   -0.1200
     24 C24       -13.7371   -4.0374   53.1986 C.ar    1  ZINC001119787528   -0.1200
     25 C25       -13.8198   -4.6916   54.4135 C.ar    1  ZINC001119787528   -0.1000
     26 N26       -12.7498   -3.4528   58.2179 N.ar    1  ZINC001119787528   -0.5500
     27 C27        -9.5564   -1.3942   61.9529 C.3     1  ZINC001119787528    0.2000
     28 H28       -12.2518    2.9059   66.5008 H       1  ZINC001119787528    0.0800
     29 H29       -12.5411    1.3284   65.7285 H       1  ZINC001119787528    0.0600
     30 H30       -11.2186    1.5141   66.9052 H       1  ZINC001119787528    0.0600
     31 H31       -11.3804    2.8783   64.1794 H       1  ZINC001119787528    0.0900
     32 H32       -10.0578    3.0639   65.3563 H       1  ZINC001119787528    0.1000
     33 H33        -8.8646    0.5962   66.0682 H       1  ZINC001119787528    0.2100
     34 H34       -12.3762    0.7662   62.4138 H       1  ZINC001119787528    0.0800
     35 H35       -11.3018    2.1409   62.0496 H       1  ZINC001119787528    0.0900
     36 H36       -11.7669    0.4900   60.1116 H       1  ZINC001119787528    0.1100
     37 H37       -10.0586    0.8727   60.4405 H       1  ZINC001119787528    0.0800
     38 H38       -12.6650   -0.7057   59.5405 H       1  ZINC001119787528    0.4200
     39 H39       -15.0554   -2.1032   60.2058 H       1  ZINC001119787528    0.1800
     40 H40       -16.3910   -3.8879   59.1138 H       1  ZINC001119787528    0.1700
     41 H41       -11.8727   -5.5965   56.9750 H       1  ZINC001119787528    0.1000
     42 H42       -13.4883   -6.2028   56.5387 H       1  ZINC001119787528    0.1000
     43 H43       -10.8381   -3.7972   55.7125 H       1  ZINC001119787528    0.1300
     44 H44       -10.6877   -2.6378   53.5453 H       1  ZINC001119787528    0.1200
     45 H45       -12.5446   -2.7912   51.9356 H       1  ZINC001119787528    0.1200
     46 H46       -14.5516   -4.1044   52.4926 H       1  ZINC001119787528    0.1200
     47 H47       -14.7001   -5.2676   54.6578 H       1  ZINC001119787528    0.1200
     48 H48        -8.6132   -1.2470   61.4267 H       1  ZINC001119787528    0.0900
     49 H49        -9.6491   -2.4341   62.2659 H       1  ZINC001119787528    0.0900
@<TRIPOS>BOND
     1     1     2    1
     2     1    28    1
     3     1    29    1
     4     1    30    1
     5     2     3    1
     6     2    31    1
     7     2    32    1
     8     3     7    1
     9     3     4    1
    10     4     5    2
    11     4    33    1
    12     5     6    1
    13     6    27    1
    14     6     7    2
    15     7     8    1
    16     8     9    1
    17     8    34    1
    18     8    35    1
    19     9    10    1
    20     9    36    1
    21     9    37    1
    22    10    11   am
    23    10    27    1
    24    11    12    2
    25    11    13   am
    26    13    14    1
    27    13    38    1
    28    14    26   ar
    29    14    15   ar
    30    15    16   ar
    31    15    39    1
    32    16    17   ar
    33    16    40    1
    34    17    18   ar
    35    18    19    1
    36    18    26   ar
    37    19    20    1
    38    19    41    1
    39    19    42    1
    40    20    25   ar
    41    20    21   ar
    42    21    22   ar
    43    21    43    1
    44    22    23   ar
    45    22    44    1
    46    23    24   ar
    47    23    45    1
    48    24    25   ar
    49    24    46    1
    50    25    47    1
    51    27    48    1
    52    27    49    1
@<TRIPOS>SUBSTRUCTURE
     1 ZINC001119787528        1 TEMP              0 ****  ****    0 ROOT


##########                                Name:    ZINC000062882109
##########                DOCK_Rotatable_Bonds:                   8
##########                         Heavy_Atoms:                  31
##########                    Molecular_Weight:             424.497
##########                DOCK_Rotatable_Bonds:                   8
##########                       Formal_Charge:           0.0299993
##########                     HBond_Acceptors:                   7
##########                        HBond_Donors:                   1
##########                         Heavy_Atoms:                  31
##########                          Grid_Score:          -34.973289
##########                     Grid_vdw_energy:          -32.621471
##########                      Grid_es_energy:           -2.351816
##########           Internal_energy_repulsive:          185.940964

@<TRIPOS>MOLECULE
ZINC000062882109
 59 61 1 0 0
SMALL
USER_CHARGES


@<TRIPOS>ATOM
      1 C1        -15.1065    0.9737   48.4661 C.3     1  ZINC000062882109   -0.2000
      2 C2        -14.6096   -0.3588   48.9647 C.2     1  ZINC000062882109    0.3900
      3 O3        -14.9114   -1.3764   48.3785 O.2     1  ZINC000062882109   -0.4500
      4 C4        -13.7578   -0.4249   50.1632 C.ar    1  ZINC000062882109   -0.1300
      5 C5        -13.3698    0.7501   50.8146 C.ar    1  ZINC000062882109   -0.1100
      6 C6        -12.5715    0.6831   51.9375 C.ar    1  ZINC000062882109   -0.0900
      7 C7        -12.1528   -0.5425   52.4222 C.ar    1  ZINC000062882109   -0.1800
      8 C8        -12.5322   -1.7156   51.7825 C.ar    1  ZINC000062882109    0.1200
      9 O9        -12.1169   -2.9167   52.2645 O.3     1  ZINC000062882109   -0.2800
     10 C10       -12.9017   -3.5051   53.3036 C.3     1  ZINC000062882109    0.0700
     11 H11       -13.0537   -4.5630   53.0895 H       1  ZINC000062882109    0.1000
     12 C12       -14.2575   -2.8002   53.3800 C.3     1  ZINC000062882109   -0.1800
     13 C13       -12.1837   -3.3571   54.6204 C.2     1  ZINC000062882109    0.5200
     14 O14       -11.1439   -2.7354   54.6777 O.2     1  ZINC000062882109   -0.4900
     15 N15       -12.6972   -3.9157   55.7343 N.am    1  ZINC000062882109   -0.6600
     16 C16       -12.0298   -3.7782   56.9585 C.ar    1  ZINC000062882109    0.1400
     17 C17       -11.2163   -4.8016   57.4254 C.ar    1  ZINC000062882109   -0.1000
     18 C18       -10.5577   -4.6706   58.6331 C.ar    1  ZINC000062882109   -0.1100
     19 C19       -10.7063   -3.5151   59.3855 C.ar    1  ZINC000062882109    0.0800
     20 O20       -10.0598   -3.4018   60.5765 O.3     1  ZINC000062882109   -0.3100
     21 C21        -9.8675   -2.0885   61.1074 C.3     1  ZINC000062882109    0.0500
     22 C22       -11.2075   -1.3399   61.0737 C.3     1  ZINC000062882109    0.0400
     23 N23       -11.6670   -1.3129   59.6746 N.am    1  ZINC000062882109   -0.5500
     24 C24       -12.2099   -0.2010   59.1402 C.2     1  ZINC000062882109    0.5300
     25 O25       -12.5815   -0.2021   57.9857 O.2     1  ZINC000062882109   -0.5100
     26 C26       -12.3553    1.0436   59.9775 C.3     1  ZINC000062882109   -0.0800
     27 C27       -13.1367    2.0985   59.1916 C.3     1  ZINC000062882109   -0.1300
     28 C28       -13.1080    0.7064   61.2661 C.3     1  ZINC000062882109   -0.1600
     29 C29       -10.9688    1.5896   60.3246 C.3     1  ZINC000062882109   -0.1500
     30 C30       -11.5194   -2.4867   58.9157 C.ar    1  ZINC000062882109    0.1000
     31 C31       -12.1767   -2.6157   57.7037 C.ar    1  ZINC000062882109   -0.1400
     32 C32       -13.3380   -1.6629   50.6587 C.ar    1  ZINC000062882109   -0.0900
     33 H33       -15.7174    0.8236   47.5759 H       1  ZINC000062882109    0.0900
     34 H34       -15.7055    1.4514   49.2414 H       1  ZINC000062882109    0.1000
     35 H35       -14.2562    1.6097   48.2202 H       1  ZINC000062882109    0.1000
     36 H36       -13.6945    1.7090   50.4387 H       1  ZINC000062882109    0.1400
     37 H37       -12.2720    1.5910   52.4397 H       1  ZINC000062882109    0.1300
     38 H38       -11.5279   -0.5877   53.3018 H       1  ZINC000062882109    0.1300
     39 H39       -14.7767   -2.9073   52.4276 H       1  ZINC000062882109    0.0800
     40 H40       -14.8562   -3.2491   54.1727 H       1  ZINC000062882109    0.0800
     41 H41       -14.1056   -1.7424   53.5942 H       1  ZINC000062882109    0.0800
     42 H42       -13.5288   -4.4129   55.6885 H       1  ZINC000062882109    0.4100
     43 H43       -11.0979   -5.7034   56.8430 H       1  ZINC000062882109    0.1400
     44 H44        -9.9263   -5.4698   58.9921 H       1  ZINC000062882109    0.1400
     45 H45        -9.5139   -2.1585   62.1361 H       1  ZINC000062882109    0.1300
     46 H46        -9.1349   -1.5538   60.5029 H       1  ZINC000062882109    0.0700
     47 H47       -11.9378   -1.8606   61.6930 H       1  ZINC000062882109    0.0900
     48 H48       -11.0715   -0.3215   61.4380 H       1  ZINC000062882109    0.1300
     49 H49       -14.1245    1.7096   58.9443 H       1  ZINC000062882109    0.0600
     50 H50       -13.2419    2.9987   59.7972 H       1  ZINC000062882109    0.0700
     51 H51       -12.6005    2.3388   58.2736 H       1  ZINC000062882109    0.0700
     52 H52       -12.5513   -0.0451   61.8260 H       1  ZINC000062882109    0.0700
     53 H53       -13.2132    1.6066   61.8717 H       1  ZINC000062882109    0.0800
     54 H54       -14.0957    0.3175   61.0188 H       1  ZINC000062882109    0.0600
     55 H55       -10.5106    2.0125   59.4307 H       1  ZINC000062882109    0.0700
     56 H56       -11.0635    2.3642   61.0856 H       1  ZINC000062882109    0.0800
     57 H57       -10.3448    0.7809   60.7051 H       1  ZINC000062882109    0.0700
     58 H58       -12.8056   -1.8161   57.3411 H       1  ZINC000062882109    0.1800
     59 H59       -13.6338   -2.5745   50.1608 H       1  ZINC000062882109    0.1400
@<TRIPOS>BOND
     1     1     2    1
     2     1    33    1
     3     1    34    1
     4     1    35    1
     5     2     3    2
     6     2     4    1
     7     4    32   ar
     8     4     5   ar
     9     5     6   ar
    10     5    36    1
    11     6     7   ar
    12     6    37    1
    13     7     8   ar
    14     7    38    1
    15     8     9    1
    16     8    32   ar
    17     9    10    1
    18    10    11    1
    19    10    12    1
    20    10    13    1
    21    12    39    1
    22    12    40    1
    23    12    41    1
    24    13    14    2
    25    13    15   am
    26    15    16    1
    27    15    42    1
    28    16    31   ar
    29    16    17   ar
    30    17    18   ar
    31    17    43    1
    32    18    19   ar
    33    18    44    1
    34    19    30   ar
    35    19    20    1
    36    20    21    1
    37    21    22    1
    38    21    45    1
    39    21    46    1
    40    22    23    1
    41    22    47    1
    42    22    48    1
    43    23    24   am
    44    23    30    1
    45    24    25    2
    46    24    26    1
    47    26    27    1
    48    26    28    1
    49    26    29    1
    50    27    49    1
    51    27    50    1
    52    27    51    1
    53    28    52    1
    54    28    53    1
    55    28    54    1
    56    29    55    1
    57    29    56    1
    58    29    57    1
    59    30    31   ar
    60    31    58    1
    61    32    59    1
@<TRIPOS>SUBSTRUCTURE
     1 ZINC000062882109        1 TEMP              0 ****  ****    0 ROOT


##########                                Name:    ZINC000981048968
##########                DOCK_Rotatable_Bonds:                   7
##########                         Heavy_Atoms:                  25
##########                    Molecular_Weight:             344.414
##########                DOCK_Rotatable_Bonds:                   7
##########                       Formal_Charge:                0.02
##########                     HBond_Acceptors:                   7
##########                        HBond_Donors:                   2
##########                         Heavy_Atoms:                  25
##########                          Grid_Score:          -34.940586
##########                     Grid_vdw_energy:          -34.280018
##########                      Grid_es_energy:           -0.660569
##########           Internal_energy_repulsive:            5.847363

@<TRIPOS>MOLECULE
ZINC000981048968
 49 52 1 0 0
SMALL
USER_CHARGES


@<TRIPOS>ATOM
      1 C1         -9.5624   -0.2615   63.2860 C.3     1  ZINC000981048968   -0.0800
      2 C2         -9.9510   -1.0477   62.0604 C.2     1  ZINC000981048968   -0.0100
      3 C3        -11.0326   -0.8190   61.3001 C.2     1  ZINC000981048968   -0.1600
      4 C4        -10.9944   -1.8262   60.2297 C.2     1  ZINC000981048968   -0.2300
      5 C5        -11.9638   -1.9980   59.1331 C.2     1  ZINC000981048968    0.5900
      6 O6        -13.0255   -1.4056   59.1616 O.2     1  ZINC000981048968   -0.5300
      7 N7        -11.6737   -2.8117   58.0984 N.am    1  ZINC000981048968   -0.7300
      8 C8        -12.6381   -2.9838   57.0092 C.3     1  ZINC000981048968    0.1500
      9 H9        -13.2880   -2.1102   56.9578 H       1  ZINC000981048968    0.0900
     10 C10       -13.4825   -4.2331   57.2685 C.3     1  ZINC000981048968   -0.1300
     11 C11       -14.4897   -4.4130   56.1309 C.3     1  ZINC000981048968   -0.1200
     12 C12       -13.7404   -4.5697   54.8062 C.3     1  ZINC000981048968   -0.1100
     13 C13       -12.8960   -3.3205   54.5469 C.3     1  ZINC000981048968    0.1000
     14 H14       -13.5459   -2.4469   54.4956 H       1  ZINC000981048968    0.0500
     15 N15       -12.1765   -3.4710   53.2751 N.3     1  ZINC000981048968   -0.6800
     16 C16       -12.2265   -2.2293   52.4917 C.3     1  ZINC000981048968    0.1500
     17 C17       -13.4576   -2.2329   51.6227 C.2     1  ZINC000981048968    0.1800
     18 N18       -14.5987   -2.7852   51.9078 N.2     1  ZINC000981048968   -0.3800
     19 O19       -15.3872   -2.6112   51.0025 O.3     1  ZINC000981048968    0.0800
     20 C20       -14.8064   -1.9100   50.0243 C.2     1  ZINC000981048968    0.2100
     21 C21       -15.4423   -1.4834   48.7264 C.3     1  ZINC000981048968   -0.0800
     22 C22       -14.5117   -1.1743   47.5519 C.3     1  ZINC000981048968   -0.1600
     23 C23       -15.3542   -2.4515   47.5449 C.3     1  ZINC000981048968   -0.1500
     24 N24       -13.5789   -1.6599   50.4118 N.2     1  ZINC000981048968   -0.4600
     25 C25       -11.8888   -3.1406   55.6845 C.3     1  ZINC000981048968   -0.1300
     26 C26        -9.8734   -2.5678   60.4632 C.2     1  ZINC000981048968    0.0200
     27 O27        -9.2672   -2.0847   61.5520 O.3     1  ZINC000981048968   -0.1700
     28 H28        -8.6379   -0.6652   63.6987 H       1  ZINC000981048968    0.0800
     29 H29        -9.4133    0.7837   63.0150 H       1  ZINC000981048968    0.0900
     30 H30       -10.3550   -0.3343   64.0308 H       1  ZINC000981048968    0.0900
     31 H31       -11.7791   -0.0521   61.4449 H       1  ZINC000981048968    0.1600
     32 H32       -10.8263   -3.2831   58.0750 H       1  ZINC000981048968    0.4000
     33 H33       -12.8326   -5.1067   57.3198 H       1  ZINC000981048968    0.0700
     34 H34       -14.0164   -4.1214   58.2121 H       1  ZINC000981048968    0.0700
     35 H35       -15.0913   -5.3030   56.3155 H       1  ZINC000981048968    0.0700
     36 H36       -15.1396   -3.5394   56.0794 H       1  ZINC000981048968    0.0600
     37 H37       -13.0904   -5.4433   54.8576 H       1  ZINC000981048968    0.0700
     38 H38       -14.4579   -4.6978   53.9957 H       1  ZINC000981048968    0.0700
     39 H39       -11.2230   -3.7619   53.4313 H       1  ZINC000981048968    0.3500
     40 H40       -12.2612   -1.3747   53.1674 H       1  ZINC000981048968    0.1100
     41 H41       -11.3385   -2.1601   51.8635 H       1  ZINC000981048968    0.0600
     42 H42       -16.3491   -0.8861   48.8211 H       1  ZINC000981048968    0.1500
     43 H43       -14.8061   -0.3734   46.8738 H       1  ZINC000981048968    0.1200
     44 H44       -13.4396   -1.2794   47.7181 H       1  ZINC000981048968    0.1100
     45 H45       -14.8363   -3.3968   47.7064 H       1  ZINC000981048968    0.1000
     46 H46       -16.2029   -2.4907   46.8620 H       1  ZINC000981048968    0.1200
     47 H47       -11.2872   -2.2506   55.4998 H       1  ZINC000981048968    0.0700
     48 H48       -11.2389   -4.0142   55.7359 H       1  ZINC000981048968    0.0800
     49 H49        -9.5320   -3.4014   59.8674 H       1  ZINC000981048968    0.2100
@<TRIPOS>BOND
     1     1     2    1
     2     1    28    1
     3     1    29    1
     4     1    30    1
     5     2    27    1
     6     2     3    2
     7     3     4    1
     8     3    31    1
     9     4     5    1
    10     4    26    2
    11     5     6    2
    12     5     7   am
    13     7     8    1
    14     7    32    1
    15     8     9    1
    16     8    25    1
    17     8    10    1
    18    10    11    1
    19    10    33    1
    20    10    34    1
    21    11    12    1
    22    11    35    1
    23    11    36    1
    24    12    13    1
    25    12    37    1
    26    12    38    1
    27    13    14    1
    28    13    15    1
    29    13    25    1
    30    15    16    1
    31    15    39    1
    32    16    17    1
    33    16    40    1
    34    16    41    1
    35    17    24    1
    36    17    18    2
    37    18    19    1
    38    19    20    1
    39    20    21    1
    40    20    24    2
    41    21    23    1
    42    21    22    1
    43    21    42    1
    44    22    23    1
    45    22    43    1
    46    22    44    1
    47    23    45    1
    48    23    46    1
    49    25    47    1
    50    25    48    1
    51    26    27    1
    52    26    49    1
@<TRIPOS>SUBSTRUCTURE
     1 ZINC000981048968        1 TEMP              0 ****  ****    0 ROOT


##########                                Name:    ZINC000939075213
##########                DOCK_Rotatable_Bonds:                   7
##########                         Heavy_Atoms:                  24
##########                    Molecular_Weight:             327.426
##########                DOCK_Rotatable_Bonds:                   7
##########                       Formal_Charge:          -0.0200002
##########                     HBond_Acceptors:                   5
##########                        HBond_Donors:                   2
##########                         Heavy_Atoms:                  24
##########                          Grid_Score:          -34.935089
##########                     Grid_vdw_energy:          -34.798393
##########                      Grid_es_energy:           -0.136696
##########           Internal_energy_repulsive:            9.808134

@<TRIPOS>MOLECULE
ZINC000939075213
 49 51 1 0 0
SMALL
USER_CHARGES


@<TRIPOS>ATOM
      1 C1        -14.3749   -5.0267   57.1631 C.3     1  ZINC000939075213   -0.1400
      2 C2        -13.6037   -3.9502   56.3968 C.3     1  ZINC000939075213   -0.1100
      3 H3        -14.0262   -2.9628   56.5826 H       1  ZINC000939075213    0.0900
      4 C4        -13.5713   -4.2639   54.8802 C.3     1  ZINC000939075213    0.1100
      5 N5        -12.3676   -3.5766   54.3782 N.am    1  ZINC000939075213   -0.6200
      6 C6        -12.1645   -3.1755   53.1076 C.2     1  ZINC000939075213    0.5600
      7 O7        -13.0177   -3.3757   52.2621 O.2     1  ZINC000939075213   -0.5400
      8 C8        -10.9595   -2.5218   52.7560 C.2     1  ZINC000939075213   -0.2600
      9 C9        -10.9368   -1.1735   52.6119 C.2     1  ZINC000939075213    0.0400
     10 C10        -9.7307   -0.5188   52.2599 C.2     1  ZINC000939075213    0.0000
     11 C11        -8.5545   -1.1287   51.8640 C.2     1  ZINC000939075213   -0.1500
     12 C12        -7.6284   -0.1115   51.6149 C.2     1  ZINC000939075213   -0.2200
     13 C13        -8.2372    1.0747   51.8562 C.2     1  ZINC000939075213    0.0200
     14 N14        -9.5172    0.8413   52.2437 N.pl3   1  ZINC000939075213   -0.5000
     15 C15       -11.4258   -3.4001   55.4934 C.3     1  ZINC000939075213    0.0900
     16 C16       -12.0945   -3.9859   56.7555 C.3     1  ZINC000939075213    0.1400
     17 H17       -11.7636   -5.0102   56.9271 H       1  ZINC000939075213    0.1100
     18 N18       -11.8148   -3.1499   57.9256 N.am    1  ZINC000939075213   -0.7200
     19 C19       -10.7134   -3.3771   58.6683 C.2     1  ZINC000939075213    0.5300
     20 O20        -9.9546   -4.2747   58.3690 O.2     1  ZINC000939075213   -0.5300
     21 C21       -10.4248   -2.5160   59.8709 C.3     1  ZINC000939075213   -0.0600
     22 C22        -9.5647   -3.2810   60.8788 C.3     1  ZINC000939075213   -0.1300
     23 C23        -9.7364   -1.2383   59.4505 C.2     1  ZINC000939075213   -0.1700
     24 C24       -10.2546   -0.2043   60.0555 C.2     1  ZINC000939075213   -0.1400
     25 C25       -11.3750   -0.6199   60.9801 C.3     1  ZINC000939075213   -0.1100
     26 C26       -11.7443   -2.0528   60.5310 C.3     1  ZINC000939075213   -0.1100
     27 H27       -14.3133   -4.8259   58.2327 H       1  ZINC000939075213    0.0600
     28 H28       -15.4194   -5.0168   56.8512 H       1  ZINC000939075213    0.0700
     29 H29       -13.9418   -6.0042   56.9514 H       1  ZINC000939075213    0.0600
     30 H30       -13.4905   -5.3385   54.7167 H       1  ZINC000939075213    0.0700
     31 H31       -14.4635   -3.8713   54.3925 H       1  ZINC000939075213    0.0800
     32 H32       -10.0582   -3.0966   52.6027 H       1  ZINC000939075213    0.1300
     33 H33       -11.8382   -0.5987   52.7653 H       1  ZINC000939075213    0.1500
     34 H34        -8.3834   -2.1906   51.7663 H       1  ZINC000939075213    0.1400
     35 H35        -6.6081   -0.2473   51.2879 H       1  ZINC000939075213    0.1400
     36 H36        -7.7797    2.0476   51.7534 H       1  ZINC000939075213    0.1600
     37 H37       -10.1706    1.5196   52.4761 H       1  ZINC000939075213    0.4100
     38 H38       -10.4986   -3.9333   55.2833 H       1  ZINC000939075213    0.0800
     39 H39       -11.2210   -2.3399   55.6414 H       1  ZINC000939075213    0.0700
     40 H40       -12.4222   -2.4328   58.1657 H       1  ZINC000939075213    0.4000
     41 H41        -8.6274   -3.5759   60.4068 H       1  ZINC000939075213    0.0600
     42 H42        -9.3543   -2.6418   61.7362 H       1  ZINC000939075213    0.0700
     43 H43       -10.0994   -4.1707   61.2115 H       1  ZINC000939075213    0.0600
     44 H44        -8.9222   -1.1875   58.7428 H       1  ZINC000939075213    0.1300
     45 H45        -9.9255    0.8145   59.9140 H       1  ZINC000939075213    0.1300
     46 H46       -11.0321   -0.6230   62.0149 H       1  ZINC000939075213    0.0800
     47 H47       -12.2297    0.0464   60.8645 H       1  ZINC000939075213    0.0800
     48 H48       -12.5596   -2.0382   59.8076 H       1  ZINC000939075213    0.0900
     49 H49       -11.9944   -2.6790   61.3873 H       1  ZINC000939075213    0.0800
@<TRIPOS>BOND
     1     1     2    1
     2     1    27    1
     3     1    28    1
     4     1    29    1
     5     2     3    1
     6     2    16    1
     7     2     4    1
     8     4     5    1
     9     4    30    1
    10     4    31    1
    11     5     6   am
    12     5    15    1
    13     6     7    2
    14     6     8    1
    15     8     9    2
    16     8    32    1
    17     9    10    1
    18     9    33    1
    19    10    14    1
    20    10    11    2
    21    11    12    1
    22    11    34    1
    23    12    13    2
    24    12    35    1
    25    13    14    1
    26    13    36    1
    27    14    37    1
    28    15    16    1
    29    15    38    1
    30    15    39    1
    31    16    17    1
    32    16    18    1
    33    18    19   am
    34    18    40    1
    35    19    20    2
    36    19    21    1
    37    21    26    1
    38    21    22    1
    39    21    23    1
    40    22    41    1
    41    22    42    1
    42    22    43    1
    43    23    24    2
    44    23    44    1
    45    24    25    1
    46    24    45    1
    47    25    26    1
    48    25    46    1
    49    25    47    1
    50    26    48    1
    51    26    49    1
@<TRIPOS>SUBSTRUCTURE
     1 ZINC000939075213        1 TEMP              0 ****  ****    0 ROOT


##########                                Name:    ZINC000880838037
##########                DOCK_Rotatable_Bonds:                   9
##########                         Heavy_Atoms:                  24
##########                    Molecular_Weight:             365.477
##########                DOCK_Rotatable_Bonds:                   9
##########                       Formal_Charge:           0.0200001
##########                     HBond_Acceptors:                   8
##########                        HBond_Donors:                   3
##########                         Heavy_Atoms:                  24
##########                          Grid_Score:          -34.908348
##########                     Grid_vdw_energy:          -33.452053
##########                      Grid_es_energy:           -1.456295
##########           Internal_energy_repulsive:            9.957237

@<TRIPOS>MOLECULE
ZINC000880838037
 43 44 1 0 0
SMALL
USER_CHARGES


@<TRIPOS>ATOM
      1 C1        -12.4790    2.3278   63.1448 C.3     1  ZINC000880838037    0.0300
      2 O2        -11.2431    2.1471   62.4505 O.3     1  ZINC000880838037   -0.3100
      3 C3        -10.5467    1.0108   62.7159 C.ar    1  ZINC000880838037    0.1400
      4 C4        -10.1723    0.7144   64.0189 C.ar    1  ZINC000880838037   -0.2200
      5 C5         -9.4640   -0.4410   64.2904 C.ar    1  ZINC000880838037   -0.0700
      6 C6         -9.1259   -1.3037   63.2661 C.ar    1  ZINC000880838037   -0.1500
      7 C7         -9.4977   -1.0118   61.9597 C.ar    1  ZINC000880838037    0.1800
      8 N8         -9.1552   -1.8858   60.9221 N.am    1  ZINC000880838037   -0.6700
      9 C9        -10.0342   -2.8212   60.5111 C.2     1  ZINC000880838037    0.5200
     10 O10       -11.1220   -2.9053   61.0407 O.2     1  ZINC000880838037   -0.4900
     11 C11        -9.6654   -3.7624   59.3936 C.3     1  ZINC000880838037   -0.0600
     12 C12       -10.5367   -3.4857   58.1955 C.2     1  ZINC000880838037    0.1000
     13 C13       -10.3930   -2.3994   57.4357 C.2     1  ZINC000880838037   -0.2600
     14 S14       -11.6004   -2.4639   56.1545 S.3     1  ZINC000880838037    0.1300
     15 C15       -12.1847   -3.9500   56.7653 C.2     1  ZINC000880838037    0.0100
     16 S16       -13.5161   -4.8727   56.0720 S.3     1  ZINC000880838037    0.1000
     17 C17       -13.9971   -3.7656   54.7234 C.3     1  ZINC000880838037   -0.1500
     18 H18       -13.8396   -2.7312   55.0288 H       1  ZINC000880838037    0.1200
     19 C19       -15.4749   -3.9797   54.3901 C.3     1  ZINC000880838037   -0.1500
     20 C20       -13.1596   -4.0631   53.5063 C.2     1  ZINC000880838037    0.5400
     21 N21       -12.8964   -3.0874   52.6145 N.am    1  ZINC000880838037   -0.8400
     22 O22       -12.7223   -5.1804   53.3294 O.2     1  ZINC000880838037   -0.5200
     23 N23       -11.5008   -4.3023   57.8103 N.2     1  ZINC000880838037   -0.4200
     24 C24       -10.2146    0.1443   61.6862 C.ar    1  ZINC000880838037   -0.1500
     25 C25       -10.6195    0.4642   60.2702 C.3     1  ZINC000880838037   -0.1000
     26 H26       -12.2936    2.3421   64.2188 H       1  ZINC000880838037    0.0600
     27 H27       -12.9315    3.2720   62.8415 H       1  ZINC000880838037    0.1000
     28 H28       -13.1546    1.5072   62.9035 H       1  ZINC000880838037    0.0600
     29 H29       -10.4346    1.3875   64.8217 H       1  ZINC000880838037    0.1300
     30 H30        -9.1738   -0.6693   65.3053 H       1  ZINC000880838037    0.1300
     31 H31        -8.5720   -2.2056   63.4809 H       1  ZINC000880838037    0.1400
     32 H32        -8.2852   -1.8184   60.4985 H       1  ZINC000880838037    0.4100
     33 H33        -8.6196   -3.6145   59.1242 H       1  ZINC000880838037    0.1200
     34 H34        -9.8142   -4.7913   59.7211 H       1  ZINC000880838037    0.1200
     35 H35        -9.6637   -1.6162   57.5807 H       1  ZINC000880838037    0.1800
     36 H36       -15.6324   -5.0142   54.0847 H       1  ZINC000880838037    0.0900
     37 H37       -16.0807   -3.7646   55.2704 H       1  ZINC000880838037    0.0800
     38 H38       -15.7646   -3.3130   53.5780 H       1  ZINC000880838037    0.0800
     39 H39       -12.3564   -3.2786   51.8317 H       1  ZINC000880838037    0.4000
     40 H40       -13.2472   -2.1941   52.7554 H       1  ZINC000880838037    0.4100
     41 H41       -11.5969    0.0278   60.0645 H       1  ZINC000880838037    0.0700
     42 H42       -10.6702    1.5455   60.1423 H       1  ZINC000880838037    0.0700
     43 H43        -9.8844    0.0508   59.5799 H       1  ZINC000880838037    0.0600
@<TRIPOS>BOND
     1     1     2    1
     2     1    26    1
     3     1    27    1
     4     1    28    1
     5     2     3    1
     6     3    24   ar
     7     3     4   ar
     8     4     5   ar
     9     4    29    1
    10     5     6   ar
    11     5    30    1
    12     6     7   ar
    13     6    31    1
    14     7     8    1
    15     7    24   ar
    16     8     9   am
    17     8    32    1
    18     9    10    2
    19     9    11    1
    20    11    12    1
    21    11    33    1
    22    11    34    1
    23    12    23    1
    24    12    13    2
    25    13    14    1
    26    13    35    1
    27    14    15    1
    28    15    16    1
    29    15    23    2
    30    16    17    1
    31    17    18    1
    32    17    19    1
    33    17    20    1
    34    19    36    1
    35    19    37    1
    36    19    38    1
    37    20    21   am
    38    20    22    2
    39    21    39    1
    40    21    40    1
    41    24    25    1
    42    25    41    1
    43    25    42    1
    44    25    43    1
@<TRIPOS>SUBSTRUCTURE
     1 ZINC000880838037        1 TEMP              0 ****  ****    0 ROOT


##########                                Name:    ZINC000805177769
##########                DOCK_Rotatable_Bonds:                  10
##########                         Heavy_Atoms:                  30
##########                    Molecular_Weight:             417.548
##########                DOCK_Rotatable_Bonds:                  10
##########                       Formal_Charge:           0.0199995
##########                     HBond_Acceptors:                   7
##########                        HBond_Donors:                   1
##########                         Heavy_Atoms:                  30
##########                          Grid_Score:          -34.894264
##########                     Grid_vdw_energy:          -34.890991
##########                      Grid_es_energy:           -0.003273
##########           Internal_energy_repulsive:           53.018585

@<TRIPOS>MOLECULE
ZINC000805177769
 65 66 1 0 0
SMALL
USER_CHARGES


@<TRIPOS>ATOM
      1 C1         -9.7705   -2.1615   60.7647 C.3     1  ZINC000805177769   -0.1200
      2 C2        -10.7317   -2.8333   59.8182 C.ar    1  ZINC000805177769   -0.0800
      3 C3        -10.2554   -3.6804   58.8356 C.ar    1  ZINC000805177769   -0.1200
      4 C4        -11.1373   -4.2968   57.9672 C.ar    1  ZINC000805177769   -0.1100
      5 C5        -12.4951   -4.0659   58.0820 C.ar    1  ZINC000805177769   -0.0900
      6 C6        -13.4563   -4.7373   57.1352 C.3     1  ZINC000805177769   -0.0900
      7 C7        -13.8112   -3.7740   56.0007 C.3     1  ZINC000805177769    0.1500
      8 H8        -13.8561   -2.7564   56.3887 H       1  ZINC000805177769    0.1000
      9 C9        -15.1713   -4.1564   55.4137 C.3     1  ZINC000805177769   -0.1700
     10 N10       -12.7883   -3.8530   54.9549 N.am    1  ZINC000805177769   -0.6900
     11 C11       -12.6516   -2.8471   54.0684 C.2     1  ZINC000805177769    0.5100
     12 O12       -13.3770   -1.8766   54.1355 O.2     1  ZINC000805177769   -0.5100
     13 C13       -11.6070   -2.9270   53.0027 C.2     1  ZINC000805177769    0.5200
     14 O14       -11.5889   -3.8709   52.2403 O.2     1  ZINC000805177769   -0.5200
     15 N15       -10.6848   -1.9507   52.8885 N.am    1  ZINC000805177769   -0.5900
     16 C16        -9.6062   -1.9033   51.8907 C.3     1  ZINC000805177769    0.1100
     17 C17        -8.8217   -0.5953   52.1256 C.3     1  ZINC000805177769   -0.1500
     18 C18        -9.8467    0.2942   52.8778 C.3     1  ZINC000805177769    0.1500
     19 H19       -10.5284    0.7803   52.1798 H       1  ZINC000805177769    0.1200
     20 N20        -9.1668    1.2830   53.7181 N.am    1  ZINC000805177769   -0.5900
     21 C21        -9.4702    1.3608   55.1493 C.3     1  ZINC000805177769    0.0800
     22 C22        -8.2622    2.1213   53.1746 C.2     1  ZINC000805177769    0.6600
     23 O23        -8.0094    2.0559   51.9878 O.2     1  ZINC000805177769   -0.5600
     24 O24        -7.6385    3.0312   53.9465 O.3     1  ZINC000805177769   -0.3600
     25 C25        -6.6816    3.9057   53.2923 C.3     1  ZINC000805177769    0.1400
     26 C26        -5.5673    3.0648   52.6659 C.3     1  ZINC000805177769   -0.1800
     27 C27        -7.3895    4.7095   52.1997 C.3     1  ZINC000805177769   -0.1400
     28 C28        -6.0799    4.8642   54.3219 C.3     1  ZINC000805177769   -0.1800
     29 C29       -10.5948   -0.7502   53.7395 C.3     1  ZINC000805177769    0.0900
     30 C30       -12.9717   -3.2196   59.0658 C.ar    1  ZINC000805177769   -0.0800
     31 C31       -14.4523   -2.9682   59.1913 C.3     1  ZINC000805177769   -0.1200
     32 C32       -12.0904   -2.6064   59.9364 C.ar    1  ZINC000805177769   -0.1200
     33 H33        -9.6158   -2.7966   61.6369 H       1  ZINC000805177769    0.0700
     34 H34        -8.8180   -1.9986   60.2604 H       1  ZINC000805177769    0.0700
     35 H35       -10.1824   -1.2033   61.0815 H       1  ZINC000805177769    0.0700
     36 H36        -9.1944   -3.8608   58.7458 H       1  ZINC000805177769    0.1200
     37 H37       -10.7650   -4.9582   57.1989 H       1  ZINC000805177769    0.1200
     38 H38       -12.9923   -5.6320   56.7202 H       1  ZINC000805177769    0.0800
     39 H39       -14.3627   -5.0144   57.6734 H       1  ZINC000805177769    0.0900
     40 H40       -15.1264   -5.1740   55.0256 H       1  ZINC000805177769    0.0600
     41 H41       -15.9324   -4.0975   56.1918 H       1  ZINC000805177769    0.0700
     42 H42       -15.4242   -3.4701   54.6054 H       1  ZINC000805177769    0.0600
     43 H43       -12.2093   -4.6294   54.9005 H       1  ZINC000805177769    0.4100
     44 H44        -8.9448   -2.7603   52.0188 H       1  ZINC000805177769    0.0900
     45 H45       -10.0298   -1.9063   50.8864 H       1  ZINC000805177769    0.0900
     46 H46        -7.9430   -0.7783   52.7440 H       1  ZINC000805177769    0.0900
     47 H47        -8.5388   -0.1395   51.1768 H       1  ZINC000805177769    0.0900
     48 H48        -8.7991    0.7011   55.6993 H       1  ZINC000805177769    0.0600
     49 H49        -9.3352    2.3859   55.4941 H       1  ZINC000805177769    0.0800
     50 H50       -10.5020    1.0531   55.3192 H       1  ZINC000805177769    0.0800
     51 H51        -5.9960    2.3819   51.9325 H       1  ZINC000805177769    0.0600
     52 H52        -4.8491    3.7213   52.1749 H       1  ZINC000805177769    0.0700
     53 H53        -5.0631    2.4922   53.4444 H       1  ZINC000805177769    0.0900
     54 H54        -8.1833    5.3085   52.6459 H       1  ZINC000805177769    0.0700
     55 H55        -6.6712    5.3660   51.7086 H       1  ZINC000805177769    0.0800
     56 H56        -7.8182    4.0265   51.4662 H       1  ZINC000805177769    0.0700
     57 H57        -5.5756    4.2916   55.1002 H       1  ZINC000805177769    0.0900
     58 H58        -5.3617    5.5208   53.8307 H       1  ZINC000805177769    0.0700
     59 H59        -6.8738    5.4633   54.7680 H       1  ZINC000805177769    0.0600
     60 H60       -11.5899   -0.3875   53.9962 H       1  ZINC000805177769    0.0900
     61 H61       -10.0268   -0.9737   54.6426 H       1  ZINC000805177769    0.0800
     62 H62       -14.8895   -3.7032   59.8672 H       1  ZINC000805177769    0.0700
     63 H63       -14.6185   -1.9664   59.5873 H       1  ZINC000805177769    0.0700
     64 H64       -14.9197   -3.0533   58.2104 H       1  ZINC000805177769    0.0700
     65 H65       -12.4626   -1.9452   60.7049 H       1  ZINC000805177769    0.1200
@<TRIPOS>BOND
     1     1     2    1
     2     1    33    1
     3     1    34    1
     4     1    35    1
     5     2    32   ar
     6     2     3   ar
     7     3     4   ar
     8     3    36    1
     9     4     5   ar
    10     4    37    1
    11     5     6    1
    12     5    30   ar
    13     6     7    1
    14     6    38    1
    15     6    39    1
    16     7     8    1
    17     7     9    1
    18     7    10    1
    19     9    40    1
    20     9    41    1
    21     9    42    1
    22    10    11   am
    23    10    43    1
    24    11    12    2
    25    11    13    1
    26    13    14    2
    27    13    15   am
    28    15    29    1
    29    15    16    1
    30    16    17    1
    31    16    44    1
    32    16    45    1
    33    17    18    1
    34    17    46    1
    35    17    47    1
    36    18    19    1
    37    18    20    1
    38    18    29    1
    39    20    21    1
    40    20    22   am
    41    21    48    1
    42    21    49    1
    43    21    50    1
    44    22    23    2
    45    22    24    1
    46    24    25    1
    47    25    26    1
    48    25    27    1
    49    25    28    1
    50    26    51    1
    51    26    52    1
    52    26    53    1
    53    27    54    1
    54    27    55    1
    55    27    56    1
    56    28    57    1
    57    28    58    1
    58    28    59    1
    59    29    60    1
    60    29    61    1
    61    30    31    1
    62    30    32   ar
    63    31    62    1
    64    31    63    1
    65    31    64    1
    66    32    65    1
@<TRIPOS>SUBSTRUCTURE
     1 ZINC000805177769        1 TEMP              0 ****  ****    0 ROOT


##########                                Name:    ZINC001400108193
##########                DOCK_Rotatable_Bonds:                   9
##########                         Heavy_Atoms:                  25
##########                    Molecular_Weight:              344.41
##########                DOCK_Rotatable_Bonds:                   9
##########                       Formal_Charge:           0.0200001
##########                     HBond_Acceptors:                   6
##########                        HBond_Donors:                   2
##########                         Heavy_Atoms:                  25
##########                          Grid_Score:          -34.885380
##########                     Grid_vdw_energy:          -34.409458
##########                      Grid_es_energy:           -0.475922
##########           Internal_energy_repulsive:            6.775288

@<TRIPOS>MOLECULE
ZINC001400108193
 49 50 1 0 0
SMALL
USER_CHARGES


@<TRIPOS>ATOM
      1 C1        -11.6019   -2.4127   52.2570 C.3     1  ZINC001400108193   -0.0800
      2 C2        -12.3130   -3.3068   53.2399 C.2     1  ZINC001400108193   -0.0100
      3 C3        -12.8565   -2.9098   54.4007 C.2     1  ZINC001400108193   -0.1600
      4 C4        -13.4314   -4.1173   55.0116 C.2     1  ZINC001400108193   -0.2300
      5 C5        -14.1431   -4.2120   56.2986 C.2     1  ZINC001400108193    0.5900
      6 O6        -14.6994   -5.2473   56.6111 O.2     1  ZINC001400108193   -0.5300
      7 N7        -14.1774   -3.1512   57.1294 N.am    1  ZINC001400108193   -0.7300
      8 C8        -14.8863   -3.2449   58.4080 C.3     1  ZINC001400108193    0.1100
      9 C9        -14.2944   -2.2360   59.3944 C.3     1  ZINC001400108193    0.1300
     10 H10       -14.1520   -1.2786   58.8932 H       1  ZINC001400108193    0.1000
     11 C11       -15.2503   -2.0564   60.5754 C.3     1  ZINC001400108193   -0.1600
     12 N12       -13.0037   -2.7289   59.8815 N.am    1  ZINC001400108193   -0.7300
     13 C13       -11.8603   -2.3039   59.3085 C.2     1  ZINC001400108193    0.5200
     14 O14       -11.8998   -1.5121   58.3906 O.2     1  ZINC001400108193   -0.5100
     15 C15       -10.5326   -2.8123   59.8084 C.3     1  ZINC001400108193    0.0700
     16 H16       -10.6736   -3.3187   60.7633 H       1  ZINC001400108193    0.1000
     17 C17        -9.9471   -3.7945   58.7918 C.3     1  ZINC001400108193   -0.1800
     18 O18        -9.6356   -1.7133   59.9801 O.3     1  ZINC001400108193   -0.2800
     19 C19        -9.7415   -1.0050   61.1351 C.ar    1  ZINC001400108193    0.1200
     20 C20        -9.3160   -1.5614   62.3327 C.ar    1  ZINC001400108193   -0.2100
     21 C21        -9.4243   -0.8392   63.5053 C.ar    1  ZINC001400108193   -0.0800
     22 C22        -9.9609    0.4350   63.4869 C.ar    1  ZINC001400108193   -0.1200
     23 C23       -10.0835    1.2182   64.7687 C.3     1  ZINC001400108193   -0.1100
     24 C24       -10.3807    0.9937   62.2939 C.ar    1  ZINC001400108193   -0.0800
     25 C25       -10.2746    0.2757   61.1184 C.ar    1  ZINC001400108193   -0.1400
     26 C26       -13.1631   -5.1326   54.1409 C.2     1  ZINC001400108193    0.0200
     27 O27       -12.5036   -4.6272   53.0940 O.3     1  ZINC001400108193   -0.1700
     28 H28       -10.5398   -2.3788   52.4993 H       1  ZINC001400108193    0.0900
     29 H29       -11.7322   -2.8053   51.2485 H       1  ZINC001400108193    0.0800
     30 H30       -12.0196   -1.4074   52.3123 H       1  ZINC001400108193    0.0900
     31 H31       -12.8694   -1.9079   54.8037 H       1  ZINC001400108193    0.1600
     32 H32       -13.7326   -2.3258   56.8806 H       1  ZINC001400108193    0.4000
     33 H33       -14.7787   -4.2522   58.8102 H       1  ZINC001400108193    0.0800
     34 H34       -15.9429   -3.0258   58.2545 H       1  ZINC001400108193    0.0900
     35 H35       -14.8287   -1.3376   61.2780 H       1  ZINC001400108193    0.0700
     36 H36       -16.2107   -1.6896   60.2129 H       1  ZINC001400108193    0.0700
     37 H37       -15.3927   -3.0138   61.0765 H       1  ZINC001400108193    0.0600
     38 H38       -12.9720   -3.3613   60.6164 H       1  ZINC001400108193    0.4000
     39 H39       -10.6312   -4.6328   58.6608 H       1  ZINC001400108193    0.0800
     40 H40        -9.8060   -3.2880   57.8370 H       1  ZINC001400108193    0.0800
     41 H41        -8.9867   -4.1622   59.1533 H       1  ZINC001400108193    0.0800
     42 H42        -8.9010   -2.5583   62.3482 H       1  ZINC001400108193    0.1300
     43 H43        -9.0936   -1.2719   64.4379 H       1  ZINC001400108193    0.1300
     44 H44        -9.1754    1.7997   64.9273 H       1  ZINC001400108193    0.0700
     45 H45       -10.9388    1.8906   64.7030 H       1  ZINC001400108193    0.0700
     46 H46       -10.2250    0.5305   65.6024 H       1  ZINC001400108193    0.0700
     47 H47       -10.7957    1.9906   62.2815 H       1  ZINC001400108193    0.1300
     48 H48       -10.6061    0.7111   60.1874 H       1  ZINC001400108193    0.1300
     49 H49       -13.4391   -6.1683   54.2738 H       1  ZINC001400108193    0.2100
@<TRIPOS>BOND
     1     1     2    1
     2     1    28    1
     3     1    29    1
     4     1    30    1
     5     2    27    1
     6     2     3    2
     7     3     4    1
     8     3    31    1
     9     4     5    1
    10     4    26    2
    11     5     6    2
    12     5     7   am
    13     7     8    1
    14     7    32    1
    15     8     9    1
    16     8    33    1
    17     8    34    1
    18     9    10    1
    19     9    11    1
    20     9    12    1
    21    11    35    1
    22    11    36    1
    23    11    37    1
    24    12    13   am
    25    12    38    1
    26    13    14    2
    27    13    15    1
    28    15    16    1
    29    15    17    1
    30    15    18    1
    31    17    39    1
    32    17    40    1
    33    17    41    1
    34    18    19    1
    35    19    25   ar
    36    19    20   ar
    37    20    21   ar
    38    20    42    1
    39    21    22   ar
    40    21    43    1
    41    22    23    1
    42    22    24   ar
    43    23    44    1
    44    23    45    1
    45    23    46    1
    46    24    25   ar
    47    24    47    1
    48    25    48    1
    49    26    27    1
    50    26    49    1
@<TRIPOS>SUBSTRUCTURE
     1 ZINC001400108193        1 TEMP              0 ****  ****    0 ROOT


##########                                Name:    ZINC000957079511
##########                DOCK_Rotatable_Bonds:                   8
##########                         Heavy_Atoms:                  25
##########                    Molecular_Weight:             362.453
##########                DOCK_Rotatable_Bonds:                   8
##########                       Formal_Charge:        -4.32134e-07
##########                     HBond_Acceptors:                   8
##########                        HBond_Donors:                   2
##########                         Heavy_Atoms:                  25
##########                          Grid_Score:          -34.884697
##########                     Grid_vdw_energy:          -30.003595
##########                      Grid_es_energy:           -4.881103
##########           Internal_energy_repulsive:           11.508458

@<TRIPOS>MOLECULE
ZINC000957079511
 47 49 1 0 0
SMALL
USER_CHARGES


@<TRIPOS>ATOM
      1 C1        -11.3758    3.3549   62.9104 C.3     1  ZINC000957079511   -0.0700
      2 C2        -11.3571    2.6705   64.2529 C.2     1  ZINC000957079511    0.0300
      3 C3        -10.6699    1.5547   64.5628 C.2     1  ZINC000957079511   -0.0200
      4 C4         -9.7817    0.7611   63.6395 C.3     1  ZINC000957079511   -0.0600
      5 C5        -10.6284   -0.1474   62.7859 C.2     1  ZINC000957079511    0.5100
      6 O6        -11.7479   -0.4464   63.1439 O.2     1  ZINC000957079511   -0.5200
      7 N7        -10.1415   -0.6278   61.6245 N.am    1  ZINC000957079511   -0.7200
      8 C8        -10.9640   -1.5124   60.7955 C.3     1  ZINC000957079511    0.1400
      9 H9        -11.8376   -1.8603   61.3467 H       1  ZINC000957079511    0.1100
     10 C10       -10.1322   -2.7057   60.2625 C.3     1  ZINC000957079511    0.0800
     11 N11       -10.8265   -3.1305   59.0334 N.am    1  ZINC000957079511   -0.6200
     12 C12       -10.7686   -4.3596   58.4834 C.2     1  ZINC000957079511    0.5400
     13 O13       -10.0999   -5.2265   59.0052 O.2     1  ZINC000957079511   -0.5100
     14 C14       -11.5347   -4.6567   57.2201 C.3     1  ZINC000957079511    0.0500
     15 O15       -10.9399   -3.9554   56.1263 O.3     1  ZINC000957079511   -0.2800
     16 C16       -11.7008   -3.7942   55.0079 C.2     1  ZINC000957079511    0.1200
     17 C17       -11.2547   -3.1608   53.9192 C.2     1  ZINC000957079511   -0.3300
     18 S18       -12.5094   -3.1501   52.6868 S.3     1  ZINC000957079511    0.1300
     19 C19       -13.6018   -4.0311   53.7468 C.2     1  ZINC000957079511   -0.1800
     20 C20       -12.9959   -4.2798   54.9093 C.2     1  ZINC000957079511   -0.1400
     21 C21       -11.5932   -1.9916   58.5073 C.3     1  ZINC000957079511    0.1100
     22 C22       -11.3821   -0.8093   59.4771 C.3     1  ZINC000957079511   -0.1100
     23 H23       -10.5862   -0.1553   59.1204 H       1  ZINC000957079511    0.0900
     24 C24       -12.6818   -0.0242   59.6647 C.3     1  ZINC000957079511   -0.1400
     25 N25       -10.9327    1.2800   65.8778 N.pl3   1  ZINC000957079511   -0.5600
     26 C26       -11.7720    2.2383   66.3259 C.2     1  ZINC000957079511    0.2000
     27 N27       -12.0176    3.0692   65.3501 N.2     1  ZINC000957079511   -0.4900
     28 H28       -10.5723    4.0902   62.8662 H       1  ZINC000957079511    0.0700
     29 H29       -11.2342    2.6145   62.1231 H       1  ZINC000957079511    0.0600
     30 H30       -12.3341    3.8551   62.7708 H       1  ZINC000957079511    0.0700
     31 H31        -9.2213    1.4428   62.9996 H       1  ZINC000957079511    0.1000
     32 H32        -9.0871    0.1627   64.2290 H       1  ZINC000957079511    0.1200
     33 H33        -9.2466   -0.3877   61.3375 H       1  ZINC000957079511    0.4000
     34 H34        -9.1154   -2.3868   60.0330 H       1  ZINC000957079511    0.0800
     35 H35       -10.1211   -3.5160   60.9913 H       1  ZINC000957079511    0.0800
     36 H36       -11.5076   -5.7283   57.0224 H       1  ZINC000957079511    0.0900
     37 H37       -12.5694   -4.3350   57.3384 H       1  ZINC000957079511    0.0900
     38 H38       -10.2736   -2.7219   53.8123 H       1  ZINC000957079511    0.1700
     39 H39       -14.6085   -4.3291   53.4937 H       1  ZINC000957079511    0.1800
     40 H40       -13.4799   -4.8120   55.7148 H       1  ZINC000957079511    0.1500
     41 H41       -11.2293   -1.7267   57.5145 H       1  ZINC000957079511    0.0800
     42 H42       -12.6517   -2.2473   58.4604 H       1  ZINC000957079511    0.0800
     43 H43       -13.4553   -0.6889   60.0496 H       1  ZINC000957079511    0.0600
     44 H44       -12.5164    0.7887   60.3717 H       1  ZINC000957079511    0.0600
     45 H45       -12.9996    0.3866   58.7064 H       1  ZINC000957079511    0.0700
     46 H46       -10.5817    0.5360   66.3917 H       1  ZINC000957079511    0.4200
     47 H47       -12.1708    2.3078   67.3273 H       1  ZINC000957079511    0.2100
@<TRIPOS>BOND
     1     1     2    1
     2     1    28    1
     3     1    29    1
     4     1    30    1
     5     2    27    1
     6     2     3    2
     7     3     4    1
     8     3    25    1
     9     4     5    1
    10     4    31    1
    11     4    32    1
    12     5     6    2
    13     5     7   am
    14     7     8    1
    15     7    33    1
    16     8     9    1
    17     8    22    1
    18     8    10    1
    19    10    11    1
    20    10    34    1
    21    10    35    1
    22    11    12   am
    23    11    21    1
    24    12    13    2
    25    12    14    1
    26    14    15    1
    27    14    36    1
    28    14    37    1
    29    15    16    1
    30    16    20    1
    31    16    17    2
    32    17    18    1
    33    17    38    1
    34    18    19    1
    35    19    20    2
    36    19    39    1
    37    20    40    1
    38    21    22    1
    39    21    41    1
    40    21    42    1
    41    22    23    1
    42    22    24    1
    43    24    43    1
    44    24    44    1
    45    24    45    1
    46    25    26    1
    47    25    46    1
    48    26    27    2
    49    26    47    1
@<TRIPOS>SUBSTRUCTURE
     1 ZINC000957079511        1 TEMP              0 ****  ****    0 ROOT


##########                                Name:    ZINC001456607258
##########                DOCK_Rotatable_Bonds:                   9
##########                         Heavy_Atoms:                  25
##########                    Molecular_Weight:             339.437
##########                DOCK_Rotatable_Bonds:                   9
##########                       Formal_Charge:          -0.0200009
##########                     HBond_Acceptors:                   5
##########                        HBond_Donors:                   2
##########                         Heavy_Atoms:                  25
##########                          Grid_Score:          -34.880711
##########                     Grid_vdw_energy:          -35.171902
##########                      Grid_es_energy:            0.291190
##########           Internal_energy_repulsive:           12.770112

@<TRIPOS>MOLECULE
ZINC001456607258
 50 52 1 0 0
SMALL
USER_CHARGES


@<TRIPOS>ATOM
      1 C1        -15.3202   -4.1631   58.6879 C.3     1  ZINC001456607258   -0.1600
      2 C2        -14.7035   -5.0139   57.5758 C.3     1  ZINC001456607258   -0.1100
      3 C3        -14.2990   -4.1117   56.4082 C.3     1  ZINC001456607258   -0.1000
      4 H4        -15.1889   -3.6501   55.9804 H       1  ZINC001456607258    0.0900
      5 C5        -13.5937   -4.9477   55.3383 C.3     1  ZINC001456607258   -0.0700
      6 C6        -13.3865   -4.1105   54.1025 C.ar    1  ZINC001456607258   -0.0800
      7 C7        -12.1072   -3.7686   53.7058 C.ar    1  ZINC001456607258   -0.1200
      8 C8        -11.9171   -3.0006   52.5722 C.ar    1  ZINC001456607258   -0.1200
      9 C9        -13.0063   -2.5748   51.8352 C.ar    1  ZINC001456607258   -0.1200
     10 C10       -14.2855   -2.9175   52.2314 C.ar    1  ZINC001456607258   -0.1200
     11 C11       -14.4754   -3.6891   53.3624 C.ar    1  ZINC001456607258   -0.1200
     12 C12       -13.3647   -3.0380   56.9034 C.2     1  ZINC001456607258    0.5200
     13 O13       -13.7602   -1.8977   57.0225 O.2     1  ZINC001456607258   -0.5300
     14 N14       -12.0896   -3.3448   57.2140 N.am    1  ZINC001456607258   -0.7300
     15 C15       -11.1814   -2.3010   57.6954 C.3     1  ZINC001456607258    0.1300
     16 C16       -11.1389   -2.3275   59.2245 C.3     1  ZINC001456607258   -0.1400
     17 C17        -9.8086   -2.8474   59.7987 C.3     1  ZINC001456607258    0.1100
     18 N18        -9.9207   -1.7525   60.7820 N.am    1  ZINC001456607258   -0.6500
     19 C19        -9.4416   -1.5463   62.0248 C.2     1  ZINC001456607258    0.6100
     20 O20        -8.7442   -2.3897   62.5553 O.2     1  ZINC001456607258   -0.5400
     21 C21        -9.7626   -0.2998   62.7402 C.2     1  ZINC001456607258   -0.2300
     22 C22        -9.7955   -0.1146   64.0949 C.2     1  ZINC001456607258    0.0400
     23 N23       -10.1310    1.1661   64.3408 N.pl3   1  ZINC001456607258   -0.5500
     24 C24       -10.3226    1.8386   63.1690 C.2     1  ZINC001456607258   -0.0200
     25 C25       -10.1054    0.9958   62.1438 C.2     1  ZINC001456607258   -0.1400
     26 C26       -10.7682   -0.9743   59.8579 C.3     1  ZINC001456607258    0.1100
     27 H27       -15.6913   -4.8137   59.4798 H       1  ZINC001456607258    0.0600
     28 H28       -14.5634   -3.4919   59.0940 H       1  ZINC001456607258    0.0600
     29 H29       -16.1452   -3.5775   58.2823 H       1  ZINC001456607258    0.0600
     30 H30       -13.8227   -5.5294   57.9588 H       1  ZINC001456607258    0.0800
     31 H31       -15.4332   -5.7474   57.2325 H       1  ZINC001456607258    0.0700
     32 H32       -12.6278   -5.2821   55.7168 H       1  ZINC001456607258    0.0800
     33 H33       -14.2071   -5.8143   55.0914 H       1  ZINC001456607258    0.0900
     34 H34       -11.2562   -4.1012   54.2816 H       1  ZINC001456607258    0.1200
     35 H35       -10.9176   -2.7329   52.2627 H       1  ZINC001456607258    0.1200
     36 H36       -12.8579   -1.9742   50.9500 H       1  ZINC001456607258    0.1200
     37 H37       -15.1365   -2.5846   51.6557 H       1  ZINC001456607258    0.1200
     38 H38       -15.4749   -3.9569   53.6720 H       1  ZINC001456607258    0.1200
     39 H39       -11.7733   -4.2569   57.1187 H       1  ZINC001456607258    0.4000
     40 H40       -10.1810   -2.4796   57.3010 H       1  ZINC001456607258    0.0700
     41 H41       -11.5362   -1.3270   57.3586 H       1  ZINC001456607258    0.0800
     42 H42       -12.0207   -2.7918   59.6662 H       1  ZINC001456607258    0.1100
     43 H43        -9.8788   -3.8420   60.2390 H       1  ZINC001456607258    0.0800
     44 H44        -8.9645   -2.7411   59.1173 H       1  ZINC001456607258    0.0900
     45 H45        -9.5880   -0.8677   64.8407 H       1  ZINC001456607258    0.1700
     46 H46       -10.2237    1.5549   65.2246 H       1  ZINC001456607258    0.4200
     47 H47       -10.5985    2.8788   63.0796 H       1  ZINC001456607258    0.1700
     48 H48       -10.1766    1.2253   61.0908 H       1  ZINC001456607258    0.1500
     49 H49       -10.2061   -0.3177   59.1937 H       1  ZINC001456607258    0.0900
     50 H50       -11.6047   -0.4734   60.3452 H       1  ZINC001456607258    0.0900
@<TRIPOS>BOND
     1     1     2    1
     2     1    27    1
     3     1    28    1
     4     1    29    1
     5     2     3    1
     6     2    30    1
     7     2    31    1
     8     3     4    1
     9     3     5    1
    10     3    12    1
    11     5     6    1
    12     5    32    1
    13     5    33    1
    14     6    11   ar
    15     6     7   ar
    16     7     8   ar
    17     7    34    1
    18     8     9   ar
    19     8    35    1
    20     9    10   ar
    21     9    36    1
    22    10    11   ar
    23    10    37    1
    24    11    38    1
    25    12    13    2
    26    12    14   am
    27    14    15    1
    28    14    39    1
    29    15    16    1
    30    15    40    1
    31    15    41    1
    32    16    26    1
    33    16    17    1
    34    16    42    1
    35    17    18    1
    36    17    43    1
    37    17    44    1
    38    18    19   am
    39    18    26    1
    40    19    20    2
    41    19    21    1
    42    21    25    1
    43    21    22    2
    44    22    23    1
    45    22    45    1
    46    23    24    1
    47    23    46    1
    48    24    25    2
    49    24    47    1
    50    25    48    1
    51    26    49    1
    52    26    50    1
@<TRIPOS>SUBSTRUCTURE
     1 ZINC001456607258        1 TEMP              0 ****  ****    0 ROOT


##########                                Name:    ZINC000548281822
##########                DOCK_Rotatable_Bonds:                   6
##########                         Heavy_Atoms:                  24
##########                    Molecular_Weight:             332.406
##########                DOCK_Rotatable_Bonds:                   6
##########                       Formal_Charge:        -5.58794e-08
##########                     HBond_Acceptors:                   8
##########                        HBond_Donors:                   2
##########                         Heavy_Atoms:                  24
##########                          Grid_Score:          -34.868809
##########                     Grid_vdw_energy:          -31.600176
##########                      Grid_es_energy:           -3.268632
##########           Internal_energy_repulsive:            6.717185

@<TRIPOS>MOLECULE
ZINC000548281822
 48 50 1 0 0
SMALL
USER_CHARGES


@<TRIPOS>ATOM
      1 C1         -8.6544    1.9152   66.6485 C.3     1  ZINC000548281822   -0.1700
      2 C2         -8.0548    0.8878   65.6861 C.3     1  ZINC000548281822    0.2600
      3 H3         -8.2705   -0.1176   66.0475 H       1  ZINC000548281822    0.1400
      4 N4         -8.6412    1.0649   64.3554 N.am    1  ZINC000548281822   -0.7400
      5 C5         -9.2211    0.0211   63.7303 C.2     1  ZINC000548281822    0.7100
      6 O6         -9.2561   -1.0678   64.2700 O.2     1  ZINC000548281822   -0.5700
      7 N7         -9.7620    0.1843   62.5066 N.am    1  ZINC000548281822   -0.7400
      8 C8        -10.3938   -0.9498   61.8278 C.3     1  ZINC000548281822    0.1600
      9 H9        -10.9179   -1.5655   62.5588 H       1  ZINC000548281822    0.1000
     10 C10       -11.3907   -0.4319   60.7868 C.3     1  ZINC000548281822   -0.1400
     11 C11       -12.2182   -1.6024   60.2444 C.3     1  ZINC000548281822    0.1100
     12 N12       -11.3078   -2.6741   59.8343 N.pl3   1  ZINC000548281822   -0.4600
     13 C13       -11.5786   -3.7346   59.0219 C.2     1  ZINC000548281822   -0.0500
     14 C14       -10.4406   -4.4522   58.9294 C.2     1  ZINC000548281822   -0.0300
     15 N15        -9.5013   -3.8406   59.6691 N.2     1  ZINC000548281822   -0.4900
     16 C16       -10.0121   -2.7758   60.2146 C.2     1  ZINC000548281822    0.2100
     17 C17        -9.3194   -1.7902   61.1262 C.3     1  ZINC000548281822   -0.0500
     18 C18        -6.5627    1.0840   65.6077 C.2     1  ZINC000548281822    0.1700
     19 N19        -5.9297    1.9846   64.8951 N.2     1  ZINC000548281822   -0.4600
     20 C20        -4.6220    1.7835   65.1364 C.2     1  ZINC000548281822    0.1900
     21 C21        -3.4761    2.5674   64.5503 C.3     1  ZINC000548281822    0.0200
     22 C22        -2.3114    2.5870   65.5424 C.3     1  ZINC000548281822   -0.1400
     23 C23        -3.0232    1.9100   63.2451 C.3     1  ZINC000548281822   -0.1400
     24 C24        -3.9301    4.0010   64.2685 C.3     1  ZINC000548281822   -0.1400
     25 N25        -4.5280    0.7893   65.9679 N.2     1  ZINC000548281822   -0.3700
     26 O26        -5.6319    0.3769   66.2557 O.3     1  ZINC000548281822    0.0800
     27 H27        -8.4386    2.9207   66.2872 H       1  ZINC000548281822    0.0700
     28 H28        -9.7335    1.7733   66.7052 H       1  ZINC000548281822    0.0900
     29 H29        -8.2180    1.7835   67.6386 H       1  ZINC000548281822    0.0800
     30 H30        -8.6122    1.9333   63.9242 H       1  ZINC000548281822    0.4000
     31 H31        -9.7330    1.0528   62.0754 H       1  ZINC000548281822    0.4000
     32 H32       -12.0542    0.2977   61.2507 H       1  ZINC000548281822    0.1000
     33 H33       -10.8481    0.0397   59.9675 H       1  ZINC000548281822    0.0800
     34 H34       -12.8868   -1.9690   61.0232 H       1  ZINC000548281822    0.0900
     35 H35       -12.8017   -1.2702   59.3856 H       1  ZINC000548281822    0.1000
     36 H36       -12.5219   -3.9573   58.5454 H       1  ZINC000548281822    0.1800
     37 H37       -10.3080   -5.3604   58.3605 H       1  ZINC000548281822    0.1700
     38 H38        -8.6698   -1.1405   60.5395 H       1  ZINC000548281822    0.0900
     39 H39        -8.7294   -2.3278   61.8684 H       1  ZINC000548281822    0.1000
     40 H40        -1.9879    1.5656   65.7432 H       1  ZINC000548281822    0.0600
     41 H41        -1.4826    3.1540   65.1186 H       1  ZINC000548281822    0.0700
     42 H42        -2.6341    3.0553   66.4723 H       1  ZINC000548281822    0.0700
     43 H43        -3.8528    1.8961   62.5384 H       1  ZINC000548281822    0.0600
     44 H44        -2.1943    2.4770   62.8213 H       1  ZINC000548281822    0.0700
     45 H45        -2.6996    0.8887   63.4458 H       1  ZINC000548281822    0.0600
     46 H46        -4.2528    4.4694   65.1984 H       1  ZINC000548281822    0.0700
     47 H47        -3.1013    4.5680   63.8447 H       1  ZINC000548281822    0.0700
     48 H48        -4.7598    3.9871   63.5618 H       1  ZINC000548281822    0.0600
@<TRIPOS>BOND
     1     1     2    1
     2     1    27    1
     3     1    28    1
     4     1    29    1
     5     2     3    1
     6     2     4    1
     7     2    18    1
     8     4     5   am
     9     4    30    1
    10     5     6    2
    11     5     7   am
    12     7     8    1
    13     7    31    1
    14     8     9    1
    15     8    17    1
    16     8    10    1
    17    10    11    1
    18    10    32    1
    19    10    33    1
    20    11    12    1
    21    11    34    1
    22    11    35    1
    23    12    16    1
    24    12    13    1
    25    13    14    2
    26    13    36    1
    27    14    15    1
    28    14    37    1
    29    15    16    2
    30    16    17    1
    31    17    38    1
    32    17    39    1
    33    18    26    1
    34    18    19    2
    35    19    20    1
    36    20    21    1
    37    20    25    2
    38    21    22    1
    39    21    23    1
    40    21    24    1
    41    22    40    1
    42    22    41    1
    43    22    42    1
    44    23    43    1
    45    23    44    1
    46    23    45    1
    47    24    46    1
    48    24    47    1
    49    24    48    1
    50    25    26    1
@<TRIPOS>SUBSTRUCTURE
     1 ZINC000548281822        1 TEMP              0 ****  ****    0 ROOT


##########                                Name:    ZINC000572148596
##########                DOCK_Rotatable_Bonds:                   4
##########                         Heavy_Atoms:                  26
##########                    Molecular_Weight:             371.463
##########                DOCK_Rotatable_Bonds:                   4
##########                       Formal_Charge:          -0.0199999
##########                     HBond_Acceptors:                   8
##########                        HBond_Donors:                   0
##########                         Heavy_Atoms:                  26
##########                          Grid_Score:          -34.860214
##########                     Grid_vdw_energy:          -33.600212
##########                      Grid_es_energy:           -1.260001
##########           Internal_energy_repulsive:            8.116641

@<TRIPOS>MOLECULE
ZINC000572148596
 47 50 1 0 0
SMALL
USER_CHARGES


@<TRIPOS>ATOM
      1 C1         -8.9109    0.5303   64.8444 C.3     1  ZINC000572148596   -0.1400
      2 C2         -9.9353    0.9244   63.7785 C.3     1  ZINC000572148596    0.0800
      3 H3         -9.6633    1.8903   63.3528 H       1  ZINC000572148596    0.1200
      4 C4         -9.9534   -0.1173   62.6897 C.2     1  ZINC000572148596    0.1800
      5 N5         -9.2190   -1.1894   62.6407 N.2     1  ZINC000572148596   -0.3500
      6 O6         -9.4654   -1.8278   61.6394 O.3     1  ZINC000572148596    0.0900
      7 C7        -10.4154   -1.2023   60.9266 C.2     1  ZINC000572148596    0.2300
      8 C8        -10.9958   -1.6511   59.6456 C.ar    1  ZINC000572148596   -0.1200
      9 C9        -11.6302   -0.7360   58.7929 C.ar    1  ZINC000572148596   -0.0100
     10 C10       -12.1544   -1.1965   57.6143 C.ar    1  ZINC000572148596   -0.1900
     11 C11       -12.0436   -2.5487   57.2990 C.ar    1  ZINC000572148596    0.3400
     12 N12       -12.5727   -3.0181   56.1067 N.3     1  ZINC000572148596   -0.4700
     13 C13       -12.9947   -4.4206   56.2334 C.3     1  ZINC000572148596    0.0300
     14 C14       -13.6257   -4.8791   54.9160 C.3     1  ZINC000572148596    0.0900
     15 H15       -13.8883   -5.9348   54.9862 H       1  ZINC000572148596    0.1100
     16 C16       -14.8859   -4.0566   54.6396 C.3     1  ZINC000572148596   -0.1800
     17 O17       -12.6882   -4.6898   53.8528 O.3     1  ZINC000572148596   -0.3700
     18 C18       -12.2562   -3.3350   53.7005 C.3     1  ZINC000572148596    0.0800
     19 H19       -13.1137   -2.7036   53.4679 H       1  ZINC000572148596    0.0700
     20 C20       -11.2352   -3.2490   52.5642 C.3     1  ZINC000572148596   -0.1400
     21 C21       -11.6113   -2.8609   55.0056 C.3     1  ZINC000572148596    0.0300
     22 N22       -11.4387   -3.3929   58.1230 N.ar    1  ZINC000572148596   -0.5200
     23 C23       -10.9161   -2.9907   59.2630 C.ar    1  ZINC000572148596    0.1900
     24 N24       -10.7344   -0.1093   61.5985 N.2     1  ZINC000572148596   -0.4700
     25 C25       -11.3021    1.0192   64.4061 C.2     1  ZINC000572148596    0.0400
     26 N26       -12.4169    0.8690   63.7741 N.2     1  ZINC000572148596   -0.4500
     27 C27       -13.5260    0.9835   64.4764 C.2     1  ZINC000572148596    0.0400
     28 C28       -13.3362    1.2449   65.7732 C.2     1  ZINC000572148596   -0.2500
     29 S29       -11.6000    1.3339   66.0600 S.3     1  ZINC000572148596    0.1400
     30 H30        -9.1829   -0.4356   65.2702 H       1  ZINC000572148596    0.0800
     31 H31        -7.9223    0.4619   64.3905 H       1  ZINC000572148596    0.0700
     32 H32        -8.8977    1.2837   65.6319 H       1  ZINC000572148596    0.0800
     33 H33       -11.7039    0.3079   59.0596 H       1  ZINC000572148596    0.1500
     34 H34       -12.6495   -0.5174   56.9359 H       1  ZINC000572148596    0.1500
     35 H35       -12.1282   -5.0426   56.4578 H       1  ZINC000572148596    0.0600
     36 H36       -13.7254   -4.5096   57.0373 H       1  ZINC000572148596    0.1000
     37 H37       -14.6225   -3.0013   54.5680 H       1  ZINC000572148596    0.0700
     38 H38       -15.3347   -4.3834   53.7016 H       1  ZINC000572148596    0.0600
     39 H39       -15.5983   -4.1989   55.4523 H       1  ZINC000572148596    0.0700
     40 H40       -11.6944   -3.5901   51.6365 H       1  ZINC000572148596    0.0700
     41 H41       -10.9064   -2.2162   52.4487 H       1  ZINC000572148596    0.0700
     42 H42       -10.3773   -3.8795   52.7982 H       1  ZINC000572148596    0.0600
     43 H43       -11.3321   -1.8113   54.9132 H       1  ZINC000572148596    0.1000
     44 H44       -10.7226   -3.4580   55.2103 H       1  ZINC000572148596    0.0600
     45 H45       -10.4302   -3.7049   59.9113 H       1  ZINC000572148596    0.1700
     46 H46       -14.5079    0.8754   64.0399 H       1  ZINC000572148596    0.1800
     47 H47       -14.1102    1.3748   66.5152 H       1  ZINC000572148596    0.1800
@<TRIPOS>BOND
     1     1     2    1
     2     1    30    1
     3     1    31    1
     4     1    32    1
     5     2     3    1
     6     2     4    1
     7     2    25    1
     8     4    24    1
     9     4     5    2
    10     5     6    1
    11     6     7    1
    12     7     8    1
    13     7    24    2
    14     8    23   ar
    15     8     9   ar
    16     9    10   ar
    17     9    33    1
    18    10    11   ar
    19    10    34    1
    20    11    12    1
    21    11    22   ar
    22    12    21    1
    23    12    13    1
    24    13    14    1
    25    13    35    1
    26    13    36    1
    27    14    15    1
    28    14    16    1
    29    14    17    1
    30    16    37    1
    31    16    38    1
    32    16    39    1
    33    17    18    1
    34    18    19    1
    35    18    20    1
    36    18    21    1
    37    20    40    1
    38    20    41    1
    39    20    42    1
    40    21    43    1
    41    21    44    1
    42    22    23   ar
    43    23    45    1
    44    25    29    1
    45    25    26    2
    46    26    27    1
    47    27    28    2
    48    27    46    1
    49    28    29    1
    50    28    47    1
@<TRIPOS>SUBSTRUCTURE
     1 ZINC000572148596        1 TEMP              0 ****  ****    0 ROOT


##########                                Name:    ZINC000504243286
##########                DOCK_Rotatable_Bonds:                   7
##########                         Heavy_Atoms:                  29
##########                    Molecular_Weight:             408.337
##########                DOCK_Rotatable_Bonds:                   7
##########                       Formal_Charge:           0.0299994
##########                     HBond_Acceptors:                  11
##########                        HBond_Donors:                   3
##########                         Heavy_Atoms:                  29
##########                          Grid_Score:          -34.851543
##########                     Grid_vdw_energy:          -35.351181
##########                      Grid_es_energy:            0.499637
##########           Internal_energy_repulsive:           12.199612

@<TRIPOS>MOLECULE
ZINC000504243286
 44 46 1 0 0
SMALL
USER_CHARGES


@<TRIPOS>ATOM
      1 O1        -11.0376   -2.0039   56.1826 O.2     1  ZINC000504243286   -0.5200
      2 C2        -11.6031   -3.0761   56.1399 C.2     1  ZINC000504243286    0.5200
      3 C3        -12.2969   -3.5122   54.8752 C.3     1  ZINC000504243286   -0.1600
      4 C4        -11.4174   -3.1763   53.6692 C.3     1  ZINC000504243286    0.1300
      5 N5        -11.5867   -1.7637   53.3197 N.pl3   1  ZINC000504243286   -0.7200
      6 C6        -10.5163   -1.0436   52.7842 C.ar    1  ZINC000504243286    0.3100
      7 C7         -9.4785   -1.7107   52.1462 C.ar    1  ZINC000504243286   -0.1900
      8 C8         -8.4218   -0.9955   51.6173 C.ar    1  ZINC000504243286    0.0200
      9 C9         -8.3963    0.3830   51.7225 C.ar    1  ZINC000504243286   -0.2400
     10 C10        -7.2420    1.1599   51.1438 C.3     1  ZINC000504243286    0.5200
     11 F11        -6.1287    0.3213   51.0242 F       1  ZINC000504243286   -0.1700
     12 F12        -7.5952    1.6490   49.8816 F       1  ZINC000504243286   -0.1700
     13 F13        -6.9306    2.2308   51.9885 F       1  ZINC000504243286   -0.1700
     14 C14        -9.4282    1.0503   52.3572 C.ar    1  ZINC000504243286    0.0400
     15 C15       -10.4902    0.3419   52.8834 C.ar    1  ZINC000504243286   -0.1200
     16 N16       -11.5939    1.0569   53.5624 N.pl3   1  ZINC000504243286    0.0400
     17 O17       -12.7417    0.6714   53.4302 O.2     1  ZINC000504243286   -0.1700
     18 O18       -11.3545    2.0309   54.2535 O.2     1  ZINC000504243286   -0.1400
     19 N19       -11.6061   -3.8798   57.2217 N.am    1  ZINC000504243286   -0.6700
     20 C20       -10.9612   -3.4744   58.3973 C.ar    1  ZINC000504243286    0.1200
     21 C21        -9.8368   -4.1543   58.8460 C.ar    1  ZINC000504243286   -0.1000
     22 C22        -9.1994   -3.7573   60.0027 C.ar    1  ZINC000504243286   -0.1200
     23 C23        -9.6796   -2.6706   60.7307 C.ar    1  ZINC000504243286    0.1300
     24 N24        -9.2160   -2.0884   61.9130 N.am    1  ZINC000504243286   -0.6600
     25 C25        -9.9693   -1.0433   62.2944 C.2     1  ZINC000504243286    0.5300
     26 O26        -9.7994   -0.3537   63.2776 O.2     1  ZINC000504243286   -0.5000
     27 C27       -11.0695   -0.8876   61.2663 C.3     1  ZINC000504243286   -0.1200
     28 C28       -10.8056   -1.9965   60.2738 C.ar    1  ZINC000504243286   -0.1200
     29 C29       -11.4406   -2.3861   59.1172 C.ar    1  ZINC000504243286   -0.0600
     30 H30       -12.4719   -4.5874   54.9091 H       1  ZINC000504243286    0.1100
     31 H31       -13.2503   -2.9915   54.7858 H       1  ZINC000504243286    0.1100
     32 H32       -10.3731   -3.3667   53.9168 H       1  ZINC000504243286    0.0800
     33 H33       -11.7092   -3.7976   52.8224 H       1  ZINC000504243286    0.0900
     34 H34       -12.4420   -1.3284   53.4601 H       1  ZINC000504243286    0.4100
     35 H35        -9.4976   -2.7874   52.0640 H       1  ZINC000504243286    0.1600
     36 H36        -7.6142   -1.5136   51.1214 H       1  ZINC000504243286    0.1600
     37 H37        -9.4053    2.1271   52.4377 H       1  ZINC000504243286    0.1600
     38 H38       -12.0549   -4.7391   57.1863 H       1  ZINC000504243286    0.4200
     39 H39        -9.4598   -4.9978   58.2869 H       1  ZINC000504243286    0.1400
     40 H40        -8.3252   -4.2908   60.3457 H       1  ZINC000504243286    0.1300
     41 H41        -8.4396   -2.4026   62.4023 H       1  ZINC000504243286    0.4100
     42 H42       -12.0471   -1.0157   61.7310 H       1  ZINC000504243286    0.1300
     43 H43       -11.0018    0.0851   60.7790 H       1  ZINC000504243286    0.1300
     44 H44       -12.3119   -1.8497   58.7712 H       1  ZINC000504243286    0.1500
@<TRIPOS>BOND
     1     1     2    2
     2     2     3    1
     3     2    19   am
     4     3     4    1
     5     3    30    1
     6     3    31    1
     7     4     5    1
     8     4    32    1
     9     4    33    1
    10     5     6    1
    11     5    34    1
    12     6    15   ar
    13     6     7   ar
    14     7     8   ar
    15     7    35    1
    16     8     9   ar
    17     8    36    1
    18     9    10    1
    19     9    14   ar
    20    10    11    1
    21    10    12    1
    22    10    13    1
    23    14    15   ar
    24    14    37    1
    25    15    16    1
    26    16    17    2
    27    16    18    2
    28    19    20    1
    29    19    38    1
    30    20    29   ar
    31    20    21   ar
    32    21    22   ar
    33    21    39    1
    34    22    23   ar
    35    22    40    1
    36    23    28   ar
    37    23    24    1
    38    24    25   am
    39    24    41    1
    40    25    26    2
    41    25    27    1
    42    27    28    1
    43    27    42    1
    44    27    43    1
    45    28    29   ar
    46    29    44    1
@<TRIPOS>SUBSTRUCTURE
     1 ZINC000504243286        1 TEMP              0 ****  ****    0 ROOT


##########                                Name:    ZINC000504638019
##########                DOCK_Rotatable_Bonds:                   8
##########                         Heavy_Atoms:                  24
##########                    Molecular_Weight:             328.454
##########                DOCK_Rotatable_Bonds:                   8
##########                       Formal_Charge:        -1.49012e-08
##########                     HBond_Acceptors:                   4
##########                        HBond_Donors:                   1
##########                         Heavy_Atoms:                  24
##########                          Grid_Score:          -34.850197
##########                     Grid_vdw_energy:          -33.953442
##########                      Grid_es_energy:           -0.896754
##########           Internal_energy_repulsive:           20.969103

@<TRIPOS>MOLECULE
ZINC000504638019
 52 53 1 0 0
SMALL
USER_CHARGES


@<TRIPOS>ATOM
      1 C1         -9.8960    0.2493   64.1731 C.3     1  ZINC000504638019   -0.1200
      2 C2        -10.1794   -0.2076   62.7653 C.ar    1  ZINC000504638019   -0.0900
      3 C3        -11.2216    0.3552   62.0526 C.ar    1  ZINC000504638019   -0.1200
      4 C4        -11.4816   -0.0639   60.7612 C.ar    1  ZINC000504638019   -0.1100
      5 C5        -10.6991   -1.0456   60.1824 C.ar    1  ZINC000504638019   -0.0900
      6 C6        -10.9828   -1.5028   58.7748 C.3     1  ZINC000504638019   -0.0600
      7 H7        -11.9509   -1.1170   58.4556 H       1  ZINC000504638019    0.0900
      8 C8         -9.8914   -0.9793   57.8388 C.3     1  ZINC000504638019   -0.1500
      9 C9        -11.0030   -3.0320   58.7296 C.3     1  ZINC000504638019    0.1300
     10 N10       -12.1709   -3.4827   57.9687 N.am    1  ZINC000504638019   -0.7000
     11 C11       -12.1609   -4.6909   57.3715 C.2     1  ZINC000504638019    0.5100
     12 O12       -11.1850   -5.4060   57.4653 O.2     1  ZINC000504638019   -0.5100
     13 C13       -13.3517   -5.1499   56.5937 C.2     1  ZINC000504638019    0.5100
     14 O14       -13.9186   -6.1775   56.9022 O.2     1  ZINC000504638019   -0.5200
     15 N15       -13.7959   -4.4226   55.5496 N.am    1  ZINC000504638019   -0.5800
     16 C16       -14.9631   -4.8727   54.7872 C.3     1  ZINC000504638019    0.0600
     17 C17       -13.1116   -3.1820   55.1771 C.3     1  ZINC000504638019    0.1100
     18 C18       -13.0363   -3.0791   53.6525 C.3     1  ZINC000504638019   -0.1000
     19 H19       -13.1656   -4.0676   53.2117 H       1  ZINC000504638019    0.0800
     20 C20       -11.6778   -2.5067   53.2420 C.3     1  ZINC000504638019   -0.0800
     21 C21       -11.6852   -2.1531   51.7836 C.2     1  ZINC000504638019   -0.1500
     22 C22       -12.7605   -2.0109   51.0773 C.2     1  ZINC000504638019   -0.1600
     23 C23       -14.1499   -2.1897   51.6155 C.3     1  ZINC000504638019   -0.0900
     24 C24       -14.1372   -2.1398   53.1440 C.3     1  ZINC000504638019   -0.1100
     25 C25        -9.6560   -1.6074   60.8946 C.ar    1  ZINC000504638019   -0.1100
     26 C26        -9.3937   -1.1856   62.1847 C.ar    1  ZINC000504638019   -0.1200
     27 H27        -9.1947    1.0833   64.1502 H       1  ZINC000504638019    0.0700
     28 H28       -10.8251    0.5688   64.6454 H       1  ZINC000504638019    0.0700
     29 H29        -9.4635   -0.5736   64.7421 H       1  ZINC000504638019    0.0700
     30 H30       -11.8329    1.1221   62.5048 H       1  ZINC000504638019    0.1200
     31 H31       -12.2962    0.3753   60.2046 H       1  ZINC000504638019    0.1200
     32 H32       -10.0967   -1.3101   56.8207 H       1  ZINC000504638019    0.0600
     33 H33        -9.8771    0.1101   57.8709 H       1  ZINC000504638019    0.0600
     34 H34        -8.9233   -1.3651   58.1580 H       1  ZINC000504638019    0.0600
     35 H35       -10.0943   -3.3934   58.2483 H       1  ZINC000504638019    0.0800
     36 H36       -11.0572   -3.4248   59.7450 H       1  ZINC000504638019    0.0800
     37 H37       -12.9515   -2.9116   57.8947 H       1  ZINC000504638019    0.4100
     38 H38       -15.8735   -4.5445   55.2889 H       1  ZINC000504638019    0.0600
     39 H39       -14.9278   -4.4478   53.7841 H       1  ZINC000504638019    0.0700
     40 H40       -14.9567   -5.9607   54.7214 H       1  ZINC000504638019    0.1100
     41 H41       -13.6642   -2.3295   55.5719 H       1  ZINC000504638019    0.0900
     42 H42       -12.1034   -3.1847   55.5913 H       1  ZINC000504638019    0.0900
     43 H43       -11.4702   -1.6122   53.8295 H       1  ZINC000504638019    0.0800
     44 H44       -10.9015   -3.2482   53.4301 H       1  ZINC000504638019    0.0600
     45 H45       -10.7341   -2.0080   51.2929 H       1  ZINC000504638019    0.1000
     46 H46       -12.6512   -1.7470   50.0357 H       1  ZINC000504638019    0.1000
     47 H47       -14.7908   -1.3954   51.2326 H       1  ZINC000504638019    0.0700
     48 H48       -14.5412   -3.1543   51.2925 H       1  ZINC000504638019    0.0700
     49 H49       -15.1055   -2.4598   53.5291 H       1  ZINC000504638019    0.0700
     50 H50       -13.9254   -1.1233   53.4758 H       1  ZINC000504638019    0.0700
     51 H51        -9.0444   -2.3740   60.4423 H       1  ZINC000504638019    0.1200
     52 H52        -8.5788   -1.6245   62.7411 H       1  ZINC000504638019    0.1200
@<TRIPOS>BOND
     1     1     2    1
     2     1    27    1
     3     1    28    1
     4     1    29    1
     5     2    26   ar
     6     2     3   ar
     7     3     4   ar
     8     3    30    1
     9     4     5   ar
    10     4    31    1
    11     5     6    1
    12     5    25   ar
    13     6     7    1
    14     6     8    1
    15     6     9    1
    16     8    32    1
    17     8    33    1
    18     8    34    1
    19     9    10    1
    20     9    35    1
    21     9    36    1
    22    10    11   am
    23    10    37    1
    24    11    12    2
    25    11    13    1
    26    13    14    2
    27    13    15   am
    28    15    16    1
    29    15    17    1
    30    16    38    1
    31    16    39    1
    32    16    40    1
    33    17    18    1
    34    17    41    1
    35    17    42    1
    36    18    19    1
    37    18    24    1
    38    18    20    1
    39    20    21    1
    40    20    43    1
    41    20    44    1
    42    21    22    2
    43    21    45    1
    44    22    23    1
    45    22    46    1
    46    23    24    1
    47    23    47    1
    48    23    48    1
    49    24    49    1
    50    24    50    1
    51    25    26   ar
    52    25    51    1
    53    26    52    1
@<TRIPOS>SUBSTRUCTURE
     1 ZINC000504638019        1 TEMP              0 ****  ****    0 ROOT


##########                                Name:    ZINC001570985666
##########                DOCK_Rotatable_Bonds:                   7
##########                         Heavy_Atoms:                  26
##########                    Molecular_Weight:             357.415
##########                DOCK_Rotatable_Bonds:                   7
##########                       Formal_Charge:          -0.0100001
##########                     HBond_Acceptors:                   9
##########                        HBond_Donors:                   3
##########                         Heavy_Atoms:                  26
##########                          Grid_Score:          -34.837555
##########                     Grid_vdw_energy:          -33.436581
##########                      Grid_es_energy:           -1.400975
##########           Internal_energy_repulsive:           10.525238

@<TRIPOS>MOLECULE
ZINC001570985666
 49 52 1 0 0
SMALL
USER_CHARGES


@<TRIPOS>ATOM
      1 C1         -9.4775   -0.3698   57.8332 C.3     1  ZINC001570985666   -0.1600
      2 C2        -10.5033   -1.1112   58.6929 C.3     1  ZINC001570985666    0.1300
      3 H3        -11.3022   -0.4304   58.9863 H       1  ZINC001570985666    0.0800
      4 C4         -9.8166   -1.6872   59.9493 C.3     1  ZINC001570985666    0.1400
      5 H5         -8.7475   -1.8153   59.7800 H       1  ZINC001570985666    0.1100
      6 N6        -10.0561   -0.8273   61.1110 N.am    1  ZINC001570985666   -0.7200
      7 C7         -9.4807   -1.1180   62.2945 C.2     1  ZINC001570985666    0.6000
      8 O8         -8.7637   -2.0948   62.3986 O.2     1  ZINC001570985666   -0.5300
      9 C9         -9.7201   -0.2523   63.4622 C.2     1  ZINC001570985666   -0.2300
     10 C10        -9.2329   -0.4417   64.7374 C.2     1  ZINC001570985666    0.0700
     11 N11        -9.6770    0.5671   65.5132 N.pl3   1  ZINC001570985666   -0.5200
     12 C12       -10.4495    1.4137   64.7571 C.2     1  ZINC001570985666    0.0600
     13 C13       -11.1191    2.6406   65.2442 C.2     1  ZINC001570985666    0.2500
     14 N14       -11.0815    3.1253   66.4711 N.2     1  ZINC001570985666   -0.3100
     15 N15       -11.7887    4.2025   66.4908 N.pl3   1  ZINC001570985666   -0.2200
     16 N16       -12.2730    4.4163   65.3176 N.2     1  ZINC001570985666   -0.0400
     17 N17       -11.8781    3.4800   64.5234 N.2     1  ZINC001570985666   -0.2600
     18 C18       -10.4910    0.9388   63.4866 C.2     1  ZINC001570985666   -0.0600
     19 C19       -10.5131   -3.0623   60.1263 C.3     1  ZINC001570985666   -0.1500
     20 C20       -10.7302   -3.4928   58.6542 C.3     1  ZINC001570985666    0.1000
     21 N21       -11.0624   -2.2431   57.9395 N.am    1  ZINC001570985666   -0.6200
     22 C22       -11.7595   -2.1577   56.7892 C.2     1  ZINC001570985666    0.5300
     23 O23       -11.9732   -1.0738   56.2888 O.2     1  ZINC001570985666   -0.5300
     24 C24       -12.2732   -3.4090   56.1247 C.3     1  ZINC001570985666   -0.1300
     25 C25       -12.4931   -3.1414   54.6344 C.3     1  ZINC001570985666   -0.1000
     26 C26       -11.2433   -3.3882   53.7732 C.3     1  ZINC001570985666   -0.1300
     27 C27       -12.1835   -4.0088   52.7264 C.3     1  ZINC001570985666   -0.1400
     28 C28       -13.1441   -4.3172   53.8870 C.3     1  ZINC001570985666   -0.1400
     29 H29        -9.9682    0.0292   56.9454 H       1  ZINC001570985666    0.0700
     30 H30        -9.0453    0.4489   58.4084 H       1  ZINC001570985666    0.0700
     31 H31        -8.6885   -1.0594   57.5333 H       1  ZINC001570985666    0.0600
     32 H32       -10.6289   -0.0489   61.0284 H       1  ZINC001570985666    0.4000
     33 H33        -8.6040   -1.2584   65.0599 H       1  ZINC001570985666    0.1800
     34 H34        -9.4818    0.6773   66.4569 H       1  ZINC001570985666    0.4300
     35 H35       -11.9336    4.7641   67.2683 H       1  ZINC001570985666    0.4800
     36 H36       -11.0170    1.3803   62.6531 H       1  ZINC001570985666    0.1600
     37 H37        -9.8630   -3.7653   60.6473 H       1  ZINC001570985666    0.0900
     38 H38       -11.4651   -2.9541   60.6462 H       1  ZINC001570985666    0.0800
     39 H39        -9.8186   -3.9321   58.2491 H       1  ZINC001570985666    0.0800
     40 H40       -11.5568   -4.1998   58.5837 H       1  ZINC001570985666    0.0800
     41 H41       -11.5444   -4.2103   56.2463 H       1  ZINC001570985666    0.0900
     42 H42       -13.2168   -3.7031   56.5842 H       1  ZINC001570985666    0.0900
     43 H43       -12.9745   -2.1823   54.4431 H       1  ZINC001570985666    0.1000
     44 H44       -10.7578   -2.4725   53.4357 H       1  ZINC001570985666    0.0700
     45 H45       -10.5454   -4.1020   54.2109 H       1  ZINC001570985666    0.0800
     46 H46       -12.5792   -3.2866   52.0123 H       1  ZINC001570985666    0.0800
     47 H47       -11.7768   -4.8996   52.2477 H       1  ZINC001570985666    0.0700
     48 H48       -12.9658   -5.2850   54.3558 H       1  ZINC001570985666    0.0800
     49 H49       -14.1930   -4.1515   53.6414 H       1  ZINC001570985666    0.0700
@<TRIPOS>BOND
     1     1     2    1
     2     1    29    1
     3     1    30    1
     4     1    31    1
     5     2     3    1
     6     2    21    1
     7     2     4    1
     8     4     5    1
     9     4     6    1
    10     4    19    1
    11     6     7   am
    12     6    32    1
    13     7     8    2
    14     7     9    1
    15     9    18    1
    16     9    10    2
    17    10    11    1
    18    10    33    1
    19    11    12    1
    20    11    34    1
    21    12    13    1
    22    12    18    2
    23    13    17    1
    24    13    14    2
    25    14    15    1
    26    15    16    1
    27    15    35    1
    28    16    17    2
    29    18    36    1
    30    19    20    1
    31    19    37    1
    32    19    38    1
    33    20    21    1
    34    20    39    1
    35    20    40    1
    36    21    22   am
    37    22    23    2
    38    22    24    1
    39    24    25    1
    40    24    41    1
    41    24    42    1
    42    25    28    1
    43    25    26    1
    44    25    43    1
    45    26    27    1
    46    26    44    1
    47    26    45    1
    48    27    28    1
    49    27    46    1
    50    27    47    1
    51    28    48    1
    52    28    49    1
@<TRIPOS>SUBSTRUCTURE
     1 ZINC001570985666        1 TEMP              0 ****  ****    0 ROOT


##########                                Name:    ZINC000523863446
##########                DOCK_Rotatable_Bonds:                  10
##########                         Heavy_Atoms:                  29
##########                    Molecular_Weight:             396.533
##########                DOCK_Rotatable_Bonds:                  10
##########                       Formal_Charge:          -0.0200008
##########                     HBond_Acceptors:                   6
##########                        HBond_Donors:                   1
##########                         Heavy_Atoms:                  29
##########                          Grid_Score:          -34.830925
##########                     Grid_vdw_energy:          -34.587032
##########                      Grid_es_energy:           -0.243895
##########           Internal_energy_repulsive:           22.749296

@<TRIPOS>MOLECULE
ZINC000523863446
 61 63 1 0 0
SMALL
USER_CHARGES


@<TRIPOS>ATOM
      1 C1        -16.2424   -3.5273   53.8464 C.3     1  ZINC000523863446   -0.1700
      2 C2        -14.8448   -3.2167   54.3859 C.3     1  ZINC000523863446    0.1500
      3 H3        -14.9065   -2.4015   55.1069 H       1  ZINC000523863446    0.1300
      4 C4        -14.2827   -4.4418   55.0598 C.2     1  ZINC000523863446    0.5100
      5 O5        -13.6714   -5.2642   54.4109 O.2     1  ZINC000523863446   -0.5100
      6 N6        -14.4595   -4.6238   56.3834 N.am    1  ZINC000523863446   -0.6000
      7 C7        -13.9116   -5.8138   57.0389 C.3     1  ZINC000523863446    0.0700
      8 C8        -15.1996   -3.6312   57.1668 C.3     1  ZINC000523863446    0.1000
      9 C9        -14.2476   -2.5766   57.6693 C.2     1  ZINC000523863446    0.5000
     10 O10       -14.5526   -1.8877   58.6198 O.2     1  ZINC000523863446   -0.5200
     11 N11       -13.0575   -2.3988   57.0624 N.am    1  ZINC000523863446   -0.7200
     12 C12       -12.1313   -1.3747   57.5521 C.3     1  ZINC000523863446    0.1900
     13 H13       -12.6944   -0.5783   58.0387 H       1  ZINC000523863446    0.1000
     14 C14       -11.3424   -0.7961   56.3757 C.3     1  ZINC000523863446   -0.1200
     15 C15       -10.7100    0.5338   56.7906 C.3     1  ZINC000523863446   -0.0900
     16 C16        -9.1867    0.4256   56.6955 C.3     1  ZINC000523863446   -0.1200
     17 C17        -8.5541    1.7556   57.1103 C.3     1  ZINC000523863446   -0.1200
     18 C18        -9.0457    2.8663   56.1800 C.3     1  ZINC000523863446   -0.1200
     19 C19       -10.5689    2.9744   56.2751 C.3     1  ZINC000523863446   -0.1200
     20 C20       -11.2015    1.6446   55.8602 C.3     1  ZINC000523863446   -0.1100
     21 C21       -11.1771   -1.9922   58.5416 C.ar    1  ZINC000523863446   -0.0900
     22 C22       -10.5327   -3.1759   58.2342 C.ar    1  ZINC000523863446   -0.1100
     23 C23        -9.6574   -3.7423   59.1419 C.ar    1  ZINC000523863446   -0.1200
     24 C24        -9.4262   -3.1247   60.3569 C.ar    1  ZINC000523863446   -0.1200
     25 C25       -10.0699   -1.9406   60.6640 C.ar    1  ZINC000523863446   -0.1200
     26 C26       -10.9419   -1.3720   59.7545 C.ar    1  ZINC000523863446   -0.1000
     27 N27       -13.9700   -2.8237   53.2784 N.pl3   1  ZINC000523863446   -0.3600
     28 C28       -12.6370   -3.0236   53.2102 C.2     1  ZINC000523863446    0.0600
     29 C29       -12.2041   -2.5183   52.0319 C.2     1  ZINC000523863446   -0.2700
     30 C30       -13.3101   -1.9916   51.3570 C.2     1  ZINC000523863446    0.0500
     31 N31       -14.3702   -2.1796   52.1007 N.2     1  ZINC000523863446   -0.2900
     32 H32       -16.1807   -4.3424   53.1253 H       1  ZINC000523863446    0.0700
     33 H33       -16.8933   -3.8196   54.6704 H       1  ZINC000523863446    0.1000
     34 H34       -16.6490   -2.6411   53.3590 H       1  ZINC000523863446    0.0800
     35 H35       -12.9006   -5.6035   57.3878 H       1  ZINC000523863446    0.0700
     36 H36       -14.5402   -6.0830   57.8877 H       1  ZINC000523863446    0.0800
     37 H37       -13.8864   -6.6405   56.3289 H       1  ZINC000523863446    0.0800
     38 H38       -15.9591   -3.1656   56.5386 H       1  ZINC000523863446    0.1100
     39 H39       -15.6792   -4.1213   58.0140 H       1  ZINC000523863446    0.1100
     40 H40       -12.8141   -2.9489   56.3015 H       1  ZINC000523863446    0.4000
     41 H41       -10.5591   -1.4958   56.0843 H       1  ZINC000523863446    0.0800
     42 H42       -12.0144   -0.6317   55.5334 H       1  ZINC000523863446    0.0700
     43 H43       -10.9942    0.7669   57.8167 H       1  ZINC000523863446    0.0700
     44 H44        -8.8366   -0.3656   57.3582 H       1  ZINC000523863446    0.0600
     45 H45        -8.9024    0.1925   55.6693 H       1  ZINC000523863446    0.0600
     46 H46        -8.8384    1.9887   58.1365 H       1  ZINC000523863446    0.0600
     47 H47        -7.4690    1.6786   57.0426 H       1  ZINC000523863446    0.0600
     48 H48        -8.5950    3.8137   56.4756 H       1  ZINC000523863446    0.0600
     49 H49        -8.7614    2.6332   55.1539 H       1  ZINC000523863446    0.0600
     50 H50       -10.8532    3.2075   57.3013 H       1  ZINC000523863446    0.0600
     51 H51       -10.9190    3.7658   55.6123 H       1  ZINC000523863446    0.0600
     52 H52       -10.9171    1.4114   54.8342 H       1  ZINC000523863446    0.0600
     53 H53       -12.2866    1.7216   55.9280 H       1  ZINC000523863446    0.0600
     54 H54       -10.7132   -3.6583   57.2850 H       1  ZINC000523863446    0.1200
     55 H55        -9.1544   -4.6675   58.9021 H       1  ZINC000523863446    0.1200
     56 H56        -8.7429   -3.5677   61.0664 H       1  ZINC000523863446    0.1200
     57 H57        -9.8895   -1.4584   61.6133 H       1  ZINC000523863446    0.1200
     58 H58       -11.4449   -0.4468   59.9943 H       1  ZINC000523863446    0.1200
     59 H59       -12.0255   -3.5009   53.9615 H       1  ZINC000523863446    0.1700
     60 H60       -11.1845   -2.5206   51.6759 H       1  ZINC000523863446    0.1500
     61 H61       -13.2930   -1.5164   50.3874 H       1  ZINC000523863446    0.1800
@<TRIPOS>BOND
     1     1     2    1
     2     1    32    1
     3     1    33    1
     4     1    34    1
     5     2     3    1
     6     2     4    1
     7     2    27    1
     8     4     5    2
     9     4     6   am
    10     6     7    1
    11     6     8    1
    12     7    35    1
    13     7    36    1
    14     7    37    1
    15     8     9    1
    16     8    38    1
    17     8    39    1
    18     9    10    2
    19     9    11   am
    20    11    12    1
    21    11    40    1
    22    12    13    1
    23    12    14    1
    24    12    21    1
    25    14    15    1
    26    14    41    1
    27    14    42    1
    28    15    20    1
    29    15    16    1
    30    15    43    1
    31    16    17    1
    32    16    44    1
    33    16    45    1
    34    17    18    1
    35    17    46    1
    36    17    47    1
    37    18    19    1
    38    18    48    1
    39    18    49    1
    40    19    20    1
    41    19    50    1
    42    19    51    1
    43    20    52    1
    44    20    53    1
    45    21    26   ar
    46    21    22   ar
    47    22    23   ar
    48    22    54    1
    49    23    24   ar
    50    23    55    1
    51    24    25   ar
    52    24    56    1
    53    25    26   ar
    54    25    57    1
    55    26    58    1
    56    27    31    1
    57    27    28    1
    58    28    29    2
    59    28    59    1
    60    29    30    1
    61    29    60    1
    62    30    31    2
    63    30    61    1
@<TRIPOS>SUBSTRUCTURE
     1 ZINC000523863446        1 TEMP              0 ****  ****    0 ROOT


##########                                Name:    ZINC000052999724
##########                DOCK_Rotatable_Bonds:                   6
##########                         Heavy_Atoms:                  25
##########                    Molecular_Weight:             398.571
##########                DOCK_Rotatable_Bonds:                   6
##########                       Formal_Charge:           0.0399994
##########                     HBond_Acceptors:                   8
##########                        HBond_Donors:                   1
##########                         Heavy_Atoms:                  25
##########                          Grid_Score:          -34.823734
##########                     Grid_vdw_energy:          -35.725033
##########                      Grid_es_energy:            0.901298
##########           Internal_energy_repulsive:           12.055985

@<TRIPOS>MOLECULE
ZINC000052999724
 47 49 1 0 0
SMALL
USER_CHARGES


@<TRIPOS>ATOM
      1 C1        -15.1770   -4.2126   57.3185 C.3     1  ZINC000052999724   -0.1400
      2 C2        -13.8921   -5.0123   57.0940 C.3     1  ZINC000052999724   -0.0400
      3 C3        -14.2459   -6.4233   56.6200 C.3     1  ZINC000052999724   -0.1400
      4 C4        -13.0504   -4.3274   56.0484 C.2     1  ZINC000052999724   -0.0400
      5 C5        -11.7313   -4.0195   56.2292 C.2     1  ZINC000052999724   -0.2600
      6 C6        -10.9503   -4.3010   57.4372 C.2     1  ZINC000052999724    0.6000
      7 O7        -10.6623   -5.4486   57.7220 O.2     1  ZINC000052999724   -0.5200
      8 N8        -10.5512   -3.2888   58.2327 N.am    1  ZINC000052999724   -0.6000
      9 C9        -10.8963   -1.8987   57.9055 C.3     1  ZINC000052999724    0.1100
     10 C10       -11.5809   -1.2618   59.1189 C.3     1  ZINC000052999724   -0.1400
     11 C11       -10.6792   -1.4134   60.3461 C.3     1  ZINC000052999724    0.1500
     12 N12       -11.3161   -0.7763   61.5014 N.am    1  ZINC000052999724   -1.1100
     13 S13       -10.3905    0.0030   62.6320 S.o2    1  ZINC000052999724    2.7200
     14 O14        -9.6101   -0.9981   63.2708 O.2     1  ZINC000052999724   -0.9500
     15 O15        -9.8242    1.1309   61.9787 O.2     1  ZINC000052999724   -0.9400
     16 C16       -11.4870    0.6364   63.8572 C.2     1  ZINC000052999724   -0.8000
     17 C17       -11.1726    0.8448   65.1366 C.2     1  ZINC000052999724    0.0100
     18 C18       -12.1998    1.3503   65.9147 C.2     1  ZINC000052999724   -0.1600
     19 C19       -13.3484    1.5523   65.2672 C.2     1  ZINC000052999724   -0.1700
     20 S20       -13.1612    1.0976   63.5784 S.3     1  ZINC000052999724    0.2100
     21 C21       -10.4599   -2.8992   60.6398 C.3     1  ZINC000052999724   -0.1500
     22 C22        -9.7678   -3.5551   59.4468 C.3     1  ZINC000052999724    0.1100
     23 S23       -11.1210   -3.2322   54.7803 S.3     1  ZINC000052999724    0.2100
     24 C24       -12.6420   -3.3538   54.0170 C.2     1  ZINC000052999724   -0.2400
     25 C25       -13.5314   -3.9553   54.8156 C.2     1  ZINC000052999724   -0.1300
     26 H26       -14.9250   -3.2074   57.6563 H       1  ZINC000052999724    0.0600
     27 H27       -15.7356   -4.1527   56.3845 H       1  ZINC000052999724    0.0600
     28 H28       -15.7858   -4.7081   58.0748 H       1  ZINC000052999724    0.0600
     29 H29       -13.3336   -5.0723   58.0281 H       1  ZINC000052999724    0.0800
     30 H30       -14.8045   -6.3634   55.6858 H       1  ZINC000052999724    0.0600
     31 H31       -13.3305   -6.9931   56.4600 H       1  ZINC000052999724    0.0600
     32 H32       -14.8548   -6.9188   57.3762 H       1  ZINC000052999724    0.0600
     33 H33        -9.9894   -1.3441   57.6647 H       1  ZINC000052999724    0.0800
     34 H34       -11.5748   -1.8817   57.0524 H       1  ZINC000052999724    0.0900
     35 H35       -11.7557   -0.2037   58.9243 H       1  ZINC000052999724    0.0900
     36 H36       -12.5325   -1.7604   59.3029 H       1  ZINC000052999724    0.0800
     37 H37        -9.7186   -0.9362   60.1520 H       1  ZINC000052999724    0.0900
     38 H38       -12.2800   -0.8109   61.6041 H       1  ZINC000052999724    0.4200
     39 H39       -10.1911    0.6349   65.5352 H       1  ZINC000052999724    0.1600
     40 H40       -12.0805    1.5645   66.9665 H       1  ZINC000052999724    0.1500
     41 H41       -14.2537    1.9393   65.7111 H       1  ZINC000052999724    0.1800
     42 H42        -9.8368   -3.0065   61.5277 H       1  ZINC000052999724    0.1000
     43 H43       -11.4222   -3.3824   60.8096 H       1  ZINC000052999724    0.0800
     44 H44        -9.6990   -4.6307   59.6104 H       1  ZINC000052999724    0.1000
     45 H45        -8.7683   -3.1367   59.3289 H       1  ZINC000052999724    0.0800
     46 H46       -12.8571   -2.9966   53.0207 H       1  ZINC000052999724    0.1700
     47 H47       -14.5547   -4.1284   54.5164 H       1  ZINC000052999724    0.1400
@<TRIPOS>BOND
     1     1     2    1
     2     1    26    1
     3     1    27    1
     4     1    28    1
     5     2     3    1
     6     2     4    1
     7     2    29    1
     8     3    30    1
     9     3    31    1
    10     3    32    1
    11     4    25    1
    12     4     5    2
    13     5     6    1
    14     5    23    1
    15     6     7    2
    16     6     8   am
    17     8    22    1
    18     8     9    1
    19     9    10    1
    20     9    33    1
    21     9    34    1
    22    10    11    1
    23    10    35    1
    24    10    36    1
    25    11    12    1
    26    11    21    1
    27    11    37    1
    28    12    13   am
    29    12    38    1
    30    13    14    2
    31    13    15    2
    32    13    16    1
    33    16    20    1
    34    16    17    2
    35    17    18    1
    36    17    39    1
    37    18    19    2
    38    18    40    1
    39    19    20    1
    40    19    41    1
    41    21    22    1
    42    21    42    1
    43    21    43    1
    44    22    44    1
    45    22    45    1
    46    23    24    1
    47    24    25    2
    48    24    46    1
    49    25    47    1
@<TRIPOS>SUBSTRUCTURE
     1 ZINC000052999724        1 TEMP              0 ****  ****    0 ROOT


##########                                Name:    ZINC000487792031
##########                DOCK_Rotatable_Bonds:                  12
##########                         Heavy_Atoms:                  29
##########                    Molecular_Weight:             414.569
##########                DOCK_Rotatable_Bonds:                  12
##########                       Formal_Charge:          -0.0100001
##########                     HBond_Acceptors:                   6
##########                        HBond_Donors:                   1
##########                         Heavy_Atoms:                  29
##########                          Grid_Score:          -34.802689
##########                     Grid_vdw_energy:          -34.557030
##########                      Grid_es_energy:           -0.245659
##########           Internal_energy_repulsive:           16.493477

@<TRIPOS>MOLECULE
ZINC000487792031
 59 60 1 0 0
SMALL
USER_CHARGES


@<TRIPOS>ATOM
      1 C1         -9.1123    1.5974   65.6409 C.2     1  ZINC000487792031   -0.1900
      2 C2        -10.2573    1.1145   65.2260 C.2     1  ZINC000487792031   -0.1500
      3 C3        -10.6294    1.2051   63.7684 C.3     1  ZINC000487792031   -0.0900
      4 C4        -10.2262   -0.0884   63.0578 C.3     1  ZINC000487792031   -0.0900
      5 C5        -10.4634    0.0609   61.5536 C.3     1  ZINC000487792031   -0.0700
      6 H6         -9.8639    0.8872   61.1715 H       1  ZINC000487792031    0.1100
      7 C7        -10.0664   -1.2134   60.8537 C.2     1  ZINC000487792031    0.5200
      8 O8         -9.4195   -2.0529   61.4433 O.2     1  ZINC000487792031   -0.5300
      9 N9        -10.4302   -1.4200   59.5725 N.am    1  ZINC000487792031   -0.7200
     10 C10       -10.0429   -2.6578   58.8915 C.3     1  ZINC000487792031    0.1500
     11 C11       -10.8865   -2.8364   57.6556 C.ar    1  ZINC000487792031   -0.0500
     12 C12       -11.4429   -4.0694   57.3707 C.ar    1  ZINC000487792031   -0.1200
     13 C13       -12.2166   -4.2332   56.2370 C.ar    1  ZINC000487792031   -0.0200
     14 C14       -12.4346   -3.1639   55.3884 C.ar    1  ZINC000487792031   -0.6700
     15 S15       -13.4204   -3.3728   53.9431 S.o2    1  ZINC000487792031    2.6900
     16 O16       -13.3971   -4.7606   53.6387 O.2     1  ZINC000487792031   -0.9500
     17 O17       -14.6209   -2.6465   54.1678 O.2     1  ZINC000487792031   -0.9500
     18 N18       -12.6369   -2.6083   52.7006 N.am    1  ZINC000487792031   -1.0000
     19 C19       -11.2878   -3.0299   52.3156 C.3     1  ZINC000487792031    0.1200
     20 C20       -10.3083   -1.8771   52.5451 C.3     1  ZINC000487792031   -0.1800
     21 C21       -13.2930   -1.5102   51.9864 C.3     1  ZINC000487792031    0.1100
     22 C22       -14.1305   -2.0770   50.8382 C.3     1  ZINC000487792031   -0.1800
     23 C23       -11.8792   -1.9305   55.6740 C.ar    1  ZINC000487792031   -0.0200
     24 C24       -11.1086   -1.7658   56.8098 C.ar    1  ZINC000487792031   -0.1200
     25 C25       -11.9225    0.3395   61.3004 C.ar    1  ZINC000487792031   -0.0800
     26 C26       -12.3125    1.5569   60.7742 C.ar    1  ZINC000487792031   -0.1100
     27 C27       -13.6511    1.8124   60.5419 C.ar    1  ZINC000487792031   -0.1100
     28 C28       -14.5995    0.8504   60.8353 C.ar    1  ZINC000487792031   -0.1200
     29 C29       -14.2093   -0.3673   61.3605 C.ar    1  ZINC000487792031   -0.1200
     30 C30       -12.8704   -0.6244   61.5888 C.ar    1  ZINC000487792031   -0.1100
     31 H31        -8.8457    1.5324   66.6855 H       1  ZINC000487792031    0.1000
     32 H32        -8.4332    2.0564   64.9377 H       1  ZINC000487792031    0.1000
     33 H33       -10.9345    0.6516   65.9284 H       1  ZINC000487792031    0.1100
     34 H34       -11.7058    1.3499   63.6765 H       1  ZINC000487792031    0.0700
     35 H35       -10.1093    2.0476   63.3123 H       1  ZINC000487792031    0.0700
     36 H36        -9.1707   -0.2898   63.2409 H       1  ZINC000487792031    0.0800
     37 H37       -10.8255   -0.9148   63.4398 H       1  ZINC000487792031    0.0700
     38 H38       -10.9486   -0.7490   59.1013 H       1  ZINC000487792031    0.4000
     39 H39        -8.9915   -2.6034   58.6090 H       1  ZINC000487792031    0.0800
     40 H40       -10.1958   -3.5041   59.5612 H       1  ZINC000487792031    0.0800
     41 H41       -11.2727   -4.9047   58.0338 H       1  ZINC000487792031    0.1400
     42 H42       -12.6508   -5.1966   56.0141 H       1  ZINC000487792031    0.1400
     43 H43       -10.9886   -3.8865   52.9196 H       1  ZINC000487792031    0.0800
     44 H44       -11.2809   -3.3082   51.2618 H       1  ZINC000487792031    0.0800
     45 H45       -10.6074   -1.0205   51.9412 H       1  ZINC000487792031    0.0600
     46 H46       -10.3151   -1.5988   53.5989 H       1  ZINC000487792031    0.0600
     47 H47        -9.3045   -2.1908   52.2587 H       1  ZINC000487792031    0.0700
     48 H48       -13.9403   -0.9652   52.6736 H       1  ZINC000487792031    0.0900
     49 H49       -12.5375   -0.8344   51.5859 H       1  ZINC000487792031    0.0900
     50 H50       -13.4833   -2.6219   50.1511 H       1  ZINC000487792031    0.0600
     51 H51       -14.8861   -2.7528   51.2388 H       1  ZINC000487792031    0.0600
     52 H52       -14.6187   -1.2600   50.3070 H       1  ZINC000487792031    0.0700
     53 H53       -12.0497   -1.0950   55.0113 H       1  ZINC000487792031    0.1400
     54 H54       -10.6747   -0.8022   57.0328 H       1  ZINC000487792031    0.1400
     55 H55       -11.5716    2.3084   60.5452 H       1  ZINC000487792031    0.1200
     56 H56       -13.9559    2.7637   60.1316 H       1  ZINC000487792031    0.1200
     57 H57       -15.6453    1.0503   60.6544 H       1  ZINC000487792031    0.1200
     58 H58       -14.9503   -1.1187   61.5900 H       1  ZINC000487792031    0.1200
     59 H59       -12.5656   -1.5759   61.9992 H       1  ZINC000487792031    0.1200
@<TRIPOS>BOND
     1     1     2    2
     2     1    31    1
     3     1    32    1
     4     2     3    1
     5     2    33    1
     6     3     4    1
     7     3    34    1
     8     3    35    1
     9     4     5    1
    10     4    36    1
    11     4    37    1
    12     5     6    1
    13     5     7    1
    14     5    25    1
    15     7     8    2
    16     7     9   am
    17     9    10    1
    18     9    38    1
    19    10    11    1
    20    10    39    1
    21    10    40    1
    22    11    24   ar
    23    11    12   ar
    24    12    13   ar
    25    12    41    1
    26    13    14   ar
    27    13    42    1
    28    14    15    1
    29    14    23   ar
    30    15    16    2
    31    15    17    2
    32    15    18   am
    33    18    19    1
    34    18    21    1
    35    19    20    1
    36    19    43    1
    37    19    44    1
    38    20    45    1
    39    20    46    1
    40    20    47    1
    41    21    22    1
    42    21    48    1
    43    21    49    1
    44    22    50    1
    45    22    51    1
    46    22    52    1
    47    23    24   ar
    48    23    53    1
    49    24    54    1
    50    25    30   ar
    51    25    26   ar
    52    26    27   ar
    53    26    55    1
    54    27    28   ar
    55    27    56    1
    56    28    29   ar
    57    28    57    1
    58    29    30   ar
    59    29    58    1
    60    30    59    1
@<TRIPOS>SUBSTRUCTURE
     1 ZINC000487792031        1 TEMP              0 ****  ****    0 ROOT


##########                                Name:    ZINC000499369364
##########                DOCK_Rotatable_Bonds:                   9
##########                         Heavy_Atoms:                  25
##########                    Molecular_Weight:             384.527
##########                DOCK_Rotatable_Bonds:                   9
##########                       Formal_Charge:        -5.88596e-07
##########                     HBond_Acceptors:                  10
##########                        HBond_Donors:                   1
##########                         Heavy_Atoms:                  25
##########                          Grid_Score:          -34.690414
##########                     Grid_vdw_energy:          -34.071217
##########                      Grid_es_energy:           -0.619196
##########           Internal_energy_repulsive:           26.316341

@<TRIPOS>MOLECULE
ZINC000499369364
 49 51 1 0 0
SMALL
USER_CHARGES


@<TRIPOS>ATOM
      1 C1        -10.9481    3.4371   52.9280 C.3     1  ZINC000499369364   -0.1500
      2 C2        -10.0910    2.6990   51.8976 C.3     1  ZINC000499369364   -0.1000
      3 C3         -8.8725    3.5532   51.5420 C.3     1  ZINC000499369364   -0.1500
      4 C4         -9.6251    1.3648   52.4839 C.3     1  ZINC000499369364    0.1500
      5 H5         -9.0288    0.8311   51.7438 H       1  ZINC000499369364    0.0900
      6 C6         -8.7776    1.6239   53.7310 C.3     1  ZINC000499369364   -0.1700
      7 N7        -10.7921    0.5564   52.8458 N.am    1  ZINC000499369364   -0.7200
      8 C8        -10.7107   -0.7889   52.8312 C.2     1  ZINC000499369364    0.5100
      9 O9         -9.6718   -1.3302   52.5170 O.2     1  ZINC000499369364   -0.5100
     10 C10       -11.9105   -1.6205   53.2052 C.3     1  ZINC000499369364    0.1200
     11 H11       -12.7810   -0.9678   53.2719 H       1  ZINC000499369364    0.1200
     12 C12       -12.1568   -2.6655   52.0934 C.3     1  ZINC000499369364   -0.0800
     13 S13       -11.3420   -4.1544   52.8094 S.3     1  ZINC000499369364   -0.2400
     14 C14       -11.7404   -3.6925   54.5462 C.3     1  ZINC000499369364    0.1400
     15 N15       -11.6751   -2.2211   54.5094 N.am    1  ZINC000499369364   -0.6000
     16 C16       -11.4184   -1.4814   55.6063 C.2     1  ZINC000499369364    0.5600
     17 O17       -11.3759   -0.2719   55.5258 O.2     1  ZINC000499369364   -0.5000
     18 C18       -11.1840   -2.1569   56.9328 C.3     1  ZINC000499369364   -0.1500
     19 S19       -10.9400   -0.9020   58.2141 S.3     1  ZINC000499369364    0.1300
     20 C20       -10.2240   -1.8944   59.4819 C.2     1  ZINC000499369364    0.2000
     21 N21        -9.9087   -3.1684   59.3928 N.2     1  ZINC000499369364   -0.3400
     22 N22        -9.4062   -3.5857   60.4985 N.2     1  ZINC000499369364   -0.0300
     23 N23        -9.3634   -2.6284   61.3608 N.2     1  ZINC000499369364   -0.0800
     24 N24        -9.8895   -1.4878   60.7293 N.pl3   1  ZINC000499369364   -0.3300
     25 C25       -10.0497   -0.1487   61.3013 C.3     1  ZINC000499369364    0.0500
     26 C26       -11.2711    0.0988   62.1891 C.3     1  ZINC000499369364   -0.1500
     27 C27        -9.8783   -0.0017   62.8146 C.3     1  ZINC000499369364   -0.1600
     28 H28       -11.2801    4.3877   52.5104 H       1  ZINC000499369364    0.0600
     29 H29       -11.8162    2.8286   53.1813 H       1  ZINC000499369364    0.0600
     30 H30       -10.3587    3.6210   53.8262 H       1  ZINC000499369364    0.0600
     31 H31       -10.6805    2.5152   50.9994 H       1  ZINC000499369364    0.0800
     32 H32        -9.2044    4.5037   51.1244 H       1  ZINC000499369364    0.0600
     33 H33        -8.2830    3.7370   52.4403 H       1  ZINC000499369364    0.0600
     34 H34        -8.2618    3.0273   50.8081 H       1  ZINC000499369364    0.0500
     35 H35        -9.3739    2.1576   54.4711 H       1  ZINC000499369364    0.0600
     36 H36        -8.4457    0.6734   54.1488 H       1  ZINC000499369364    0.0600
     37 H37        -7.9093    2.2255   53.4619 H       1  ZINC000499369364    0.0700
     38 H38       -11.6233    0.9893   53.0960 H       1  ZINC000499369364    0.4000
     39 H39       -13.2233   -2.8359   51.9454 H       1  ZINC000499369364    0.1200
     40 H40       -11.6768   -2.3665   51.1616 H       1  ZINC000499369364    0.1300
     41 H41       -12.7409   -4.0299   54.8163 H       1  ZINC000499369364    0.1100
     42 H42       -10.9965   -4.0952   55.2337 H       1  ZINC000499369364    0.1200
     43 H43       -12.0484   -2.7710   57.1856 H       1  ZINC000499369364    0.1300
     44 H44       -10.2971   -2.7872   56.8679 H       1  ZINC000499369364    0.1300
     45 H45        -9.7082    0.6745   60.6738 H       1  ZINC000499369364    0.1600
     46 H46       -11.7333    1.0849   62.1456 H       1  ZINC000499369364    0.1200
     47 H47       -11.9552   -0.7348   62.3475 H       1  ZINC000499369364    0.1200
     48 H48        -9.6463   -0.9013   63.3845 H       1  ZINC000499369364    0.1100
     49 H49        -9.4243    0.9184   63.1826 H       1  ZINC000499369364    0.1200
@<TRIPOS>BOND
     1     1     2    1
     2     1    28    1
     3     1    29    1
     4     1    30    1
     5     2     3    1
     6     2     4    1
     7     2    31    1
     8     3    32    1
     9     3    33    1
    10     3    34    1
    11     4     5    1
    12     4     6    1
    13     4     7    1
    14     6    35    1
    15     6    36    1
    16     6    37    1
    17     7     8   am
    18     7    38    1
    19     8     9    2
    20     8    10    1
    21    10    11    1
    22    10    15    1
    23    10    12    1
    24    12    13    1
    25    12    39    1
    26    12    40    1
    27    13    14    1
    28    14    15    1
    29    14    41    1
    30    14    42    1
    31    15    16   am
    32    16    17    2
    33    16    18    1
    34    18    19    1
    35    18    43    1
    36    18    44    1
    37    19    20    1
    38    20    24    1
    39    20    21    2
    40    21    22    1
    41    22    23    2
    42    23    24    1
    43    24    25    1
    44    25    27    1
    45    25    26    1
    46    25    45    1
    47    26    27    1
    48    26    46    1
    49    26    47    1
    50    27    48    1
    51    27    49    1
@<TRIPOS>SUBSTRUCTURE
     1 ZINC000499369364        1 TEMP              0 ****  ****    0 ROOT


##########                                Name:    ZINC001078110631
##########                DOCK_Rotatable_Bonds:                   7
##########                         Heavy_Atoms:                  25
##########                    Molecular_Weight:             353.369
##########                DOCK_Rotatable_Bonds:                   7
##########                       Formal_Charge:           0.0100006
##########                     HBond_Acceptors:                   8
##########                        HBond_Donors:                   2
##########                         Heavy_Atoms:                  25
##########                          Grid_Score:          -34.640102
##########                     Grid_vdw_energy:          -33.632175
##########                      Grid_es_energy:           -1.007928
##########           Internal_energy_repulsive:           12.684805

@<TRIPOS>MOLECULE
ZINC001078110631
 46 48 1 0 0
SMALL
USER_CHARGES


@<TRIPOS>ATOM
      1 O1        -10.7375   -4.8851   58.4245 O.2     1  ZINC001078110631   -0.5100
      2 C2        -11.1837   -3.7542   58.4436 C.2     1  ZINC001078110631    0.5600
      3 N3        -11.8617   -3.2792   57.3800 N.am    1  ZINC001078110631   -0.7200
      4 C4        -12.0557   -4.1235   56.1985 C.3     1  ZINC001078110631    0.1500
      5 H5        -11.3257   -4.9328   56.1882 H       1  ZINC001078110631    0.1200
      6 C6        -11.9385   -3.2793   54.9113 C.3     1  ZINC001078110631    0.0300
      7 N7        -12.9590   -3.8503   53.9950 N.3     1  ZINC001078110631   -0.5000
      8 C8        -13.3245   -2.8867   52.9481 C.3     1  ZINC001078110631    0.0300
      9 C9        -12.1746   -2.7610   51.9467 C.3     1  ZINC001078110631    0.1300
     10 N10       -11.4819   -1.4871   52.1559 N.am    1  ZINC001078110631   -0.6200
     11 C11       -12.1562   -0.1908   52.2931 C.3     1  ZINC001078110631    0.1000
     12 C12       -11.1070    0.7553   52.9180 C.3     1  ZINC001078110631   -0.1300
     13 C13        -9.7818    0.0952   52.4718 C.3     1  ZINC001078110631   -0.1600
     14 C14       -10.1476   -1.3563   52.2524 C.2     1  ZINC001078110631    0.5200
     15 O15        -9.3524   -2.2681   52.1685 O.2     1  ZINC001078110631   -0.5200
     16 C16       -14.1180   -4.1434   54.8769 C.3     1  ZINC001078110631    0.0000
     17 C17       -13.4887   -4.6941   56.1773 C.3     1  ZINC001078110631    0.1000
     18 H18       -14.0478   -4.3454   57.0456 H       1  ZINC001078110631    0.0700
     19 O19       -13.4589   -6.1226   56.1481 O.3     1  ZINC001078110631   -0.5500
     20 C20       -10.9882   -2.9038   59.6337 C.ar    1  ZINC001078110631   -0.1900
     21 C21       -12.0045   -2.0433   60.0555 C.ar    1  ZINC001078110631   -0.0300
     22 C22       -11.8168   -1.2514   61.1673 C.ar    1  ZINC001078110631   -0.1700
     23 C23       -10.6215   -1.3063   61.8690 C.ar    1  ZINC001078110631    0.1600
     24 F24       -10.4445   -0.5268   62.9582 F       1  ZINC001078110631   -0.1200
     25 C25        -9.6084   -2.1571   61.4580 C.ar    1  ZINC001078110631   -0.2000
     26 C26        -9.7860   -2.9602   60.3478 C.ar    1  ZINC001078110631    0.2000
     27 F27        -8.7982   -3.7900   59.9469 F       1  ZINC001078110631   -0.1000
     28 H28       -12.2212   -2.3785   57.3969 H       1  ZINC001078110631    0.4000
     29 H29       -12.1594   -2.2328   55.1215 H       1  ZINC001078110631    0.0500
     30 H30       -10.9423   -3.3794   54.4805 H       1  ZINC001078110631    0.1000
     31 H31       -14.2197   -3.2332   52.4319 H       1  ZINC001078110631    0.0400
     32 H32       -13.5196   -1.9147   53.4011 H       1  ZINC001078110631    0.0800
     33 H33       -11.4743   -3.5835   52.0924 H       1  ZINC001078110631    0.0900
     34 H34       -12.5710   -2.7968   50.9320 H       1  ZINC001078110631    0.0800
     35 H35       -12.4634    0.1799   51.3153 H       1  ZINC001078110631    0.0700
     36 H36       -13.0204   -0.2828   52.9510 H       1  ZINC001078110631    0.0800
     37 H37       -11.1978    1.7621   52.5103 H       1  ZINC001078110631    0.0900
     38 H38       -11.1905    0.7670   54.0047 H       1  ZINC001078110631    0.0800
     39 H39        -9.4234    0.5463   51.5465 H       1  ZINC001078110631    0.1100
     40 H40        -9.0295    0.1817   53.2559 H       1  ZINC001078110631    0.1000
     41 H41       -14.6799   -3.2323   55.0817 H       1  ZINC001078110631    0.0600
     42 H42       -14.7629   -4.8943   54.4201 H       1  ZINC001078110631    0.0900
     43 H43       -14.3328   -6.5332   56.0957 H       1  ZINC001078110631    0.3800
     44 H44       -12.9360   -1.9985   59.5108 H       1  ZINC001078110631    0.1500
     45 H45       -12.6024   -0.5859   61.4932 H       1  ZINC001078110631    0.1500
     46 H46        -8.6798   -2.1955   62.0082 H       1  ZINC001078110631    0.1600
@<TRIPOS>BOND
     1     1     2    2
     2     2     3   am
     3     2    20    1
     4     3     4    1
     5     3    28    1
     6     4     5    1
     7     4    17    1
     8     4     6    1
     9     6     7    1
    10     6    29    1
    11     6    30    1
    12     7     8    1
    13     7    16    1
    14     8     9    1
    15     8    31    1
    16     8    32    1
    17     9    10    1
    18     9    33    1
    19     9    34    1
    20    10    14   am
    21    10    11    1
    22    11    12    1
    23    11    35    1
    24    11    36    1
    25    12    13    1
    26    12    37    1
    27    12    38    1
    28    13    14    1
    29    13    39    1
    30    13    40    1
    31    14    15    2
    32    16    17    1
    33    16    41    1
    34    16    42    1
    35    17    18    1
    36    17    19    1
    37    19    43    1
    38    20    26   ar
    39    20    21   ar
    40    21    22   ar
    41    21    44    1
    42    22    23   ar
    43    22    45    1
    44    23    24    1
    45    23    25   ar
    46    25    26   ar
    47    25    46    1
    48    26    27    1
@<TRIPOS>SUBSTRUCTURE
     1 ZINC001078110631        1 TEMP              0 ****  ****    0 ROOT


##########                                Name:    ZINC001041713551
##########                DOCK_Rotatable_Bonds:                  10
##########                         Heavy_Atoms:                  22
##########                    Molecular_Weight:             330.448
##########                DOCK_Rotatable_Bonds:                  10
##########                       Formal_Charge:          -0.0100006
##########                     HBond_Acceptors:                   7
##########                        HBond_Donors:                   2
##########                         Heavy_Atoms:                  22
##########                          Grid_Score:          -34.633064
##########                     Grid_vdw_energy:          -28.565853
##########                      Grid_es_energy:           -6.067212
##########           Internal_energy_repulsive:            5.253124

@<TRIPOS>MOLECULE
ZINC001041713551
 48 49 1 0 0
SMALL
USER_CHARGES


@<TRIPOS>ATOM
      1 C1         -2.2153    1.2126   61.6701 C.3     1  ZINC001041713551   -0.1500
      2 C2         -1.5236    2.0429   62.7533 C.3     1  ZINC001041713551   -0.1100
      3 C3         -2.0579    1.6349   64.1276 C.3     1  ZINC001041713551   -0.1000
      4 S4         -3.8373    1.9779   64.2109 S.3     1  ZINC001041713551   -0.1800
      5 C5         -4.2646    1.5069   65.9097 C.3     1  ZINC001041713551   -0.1300
      6 C6         -5.7207    1.8026   66.1617 C.2     1  ZINC001041713551    0.5300
      7 O7         -6.0557    2.8935   66.5723 O.2     1  ZINC001041713551   -0.5100
      8 N8         -6.6506    0.8546   65.9310 N.am    1  ZINC001041713551   -0.7300
      9 C9         -8.0663    1.1427   66.1744 C.3     1  ZINC001041713551    0.1000
     10 C10        -8.9303    0.1706   65.3686 C.3     1  ZINC001041713551    0.0900
     11 O11        -8.9247   -1.1546   65.9032 O.3     1  ZINC001041713551   -0.5200
     12 C12       -10.3379    0.7081   65.0528 C.3     1  ZINC001041713551    0.0900
     13 N13       -10.1429    0.1405   63.7046 N.am    1  ZINC001041713551   -0.6400
     14 C14       -10.9710   -0.2863   62.7306 C.2     1  ZINC001041713551    0.5500
     15 O15       -12.1721   -0.2373   62.8912 O.2     1  ZINC001041713551   -0.5100
     16 C16       -10.4044   -0.8243   61.4420 C.3     1  ZINC001041713551    0.0800
     17 H17        -9.4010   -0.4260   61.2917 H       1  ZINC001041713551    0.0800
     18 C18       -11.3009   -0.4029   60.2748 C.3     1  ZINC001041713551   -0.1500
     19 C19       -10.7522   -1.0034   58.9768 C.3     1  ZINC001041713551   -0.1200
     20 C20       -10.6697   -2.5256   59.1265 C.3     1  ZINC001041713551   -0.1600
     21 C21        -9.7977   -2.8650   60.3379 C.3     1  ZINC001041713551    0.0600
     22 O22       -10.3463   -2.2507   61.5056 O.3     1  ZINC001041713551   -0.3600
     23 C23        -8.6770    0.2279   63.8512 C.3     1  ZINC001041713551    0.1200
     24 H24        -3.2904    1.3882   61.7088 H       1  ZINC001041713551    0.0600
     25 H25        -1.8346    1.5033   60.6911 H       1  ZINC001041713551    0.0600
     26 H26        -2.0137    0.1548   61.8389 H       1  ZINC001041713551    0.0600
     27 H27        -0.4485    1.8672   62.7146 H       1  ZINC001041713551    0.0700
     28 H28        -1.7253    3.1007   62.5844 H       1  ZINC001041713551    0.0700
     29 H29        -1.8855    0.5699   64.2830 H       1  ZINC001041713551    0.0800
     30 H30        -1.5418    2.2032   64.9014 H       1  ZINC001041713551    0.0800
     31 H31        -4.0810    0.4414   66.0484 H       1  ZINC001041713551    0.1100
     32 H32        -3.6520    2.0753   66.6094 H       1  ZINC001041713551    0.1100
     33 H33        -6.3825   -0.0183   65.6039 H       1  ZINC001041713551    0.4000
     34 H34        -8.2832    1.0270   67.2364 H       1  ZINC001041713551    0.0900
     35 H35        -8.2870    2.1650   65.8677 H       1  ZINC001041713551    0.0900
     36 H36        -9.3404   -1.2295   66.7732 H       1  ZINC001041713551    0.3800
     37 H37       -11.1312    0.2242   65.6228 H       1  ZINC001041713551    0.0900
     38 H38       -10.4060    1.7959   65.0658 H       1  ZINC001041713551    0.1000
     39 H39       -12.3145   -0.7663   60.4442 H       1  ZINC001041713551    0.0800
     40 H40       -11.3110    0.6844   60.1973 H       1  ZINC001041713551    0.0800
     41 H41       -11.4169   -0.7537   58.1499 H       1  ZINC001041713551    0.0700
     42 H42        -9.7579   -0.6019   58.7811 H       1  ZINC001041713551    0.0700
     43 H43       -11.6705   -2.9320   59.2727 H       1  ZINC001041713551    0.0700
     44 H44       -10.2285   -2.9566   58.2277 H       1  ZINC001041713551    0.0800
     45 H45        -9.7703   -3.9462   60.4747 H       1  ZINC001041713551    0.1000
     46 H46        -8.7862   -2.4937   60.1733 H       1  ZINC001041713551    0.0500
     47 H47        -8.2572    1.1746   63.5113 H       1  ZINC001041713551    0.1100
     48 H48        -8.1440   -0.6395   63.4618 H       1  ZINC001041713551    0.1000
@<TRIPOS>BOND
     1     1     2    1
     2     1    24    1
     3     1    25    1
     4     1    26    1
     5     2     3    1
     6     2    27    1
     7     2    28    1
     8     3     4    1
     9     3    29    1
    10     3    30    1
    11     4     5    1
    12     5     6    1
    13     5    31    1
    14     5    32    1
    15     6     7    2
    16     6     8   am
    17     8     9    1
    18     8    33    1
    19     9    10    1
    20     9    34    1
    21     9    35    1
    22    10    23    1
    23    10    11    1
    24    10    12    1
    25    11    36    1
    26    12    13    1
    27    12    37    1
    28    12    38    1
    29    13    14   am
    30    13    23    1
    31    14    15    2
    32    14    16    1
    33    16    17    1
    34    16    22    1
    35    16    18    1
    36    18    19    1
    37    18    39    1
    38    18    40    1
    39    19    20    1
    40    19    41    1
    41    19    42    1
    42    20    21    1
    43    20    43    1
    44    20    44    1
    45    21    22    1
    46    21    45    1
    47    21    46    1
    48    23    47    1
    49    23    48    1
@<TRIPOS>SUBSTRUCTURE
     1 ZINC001041713551        1 TEMP              0 ****  ****    0 ROOT


##########                                Name:    ZINC000541000201
##########                DOCK_Rotatable_Bonds:                  10
##########                         Heavy_Atoms:                  30
##########                    Molecular_Weight:             420.413
##########                DOCK_Rotatable_Bonds:                  10
##########                       Formal_Charge:               -0.03
##########                     HBond_Acceptors:                   9
##########                        HBond_Donors:                   1
##########                         Heavy_Atoms:                  30
##########                          Grid_Score:          -34.587029
##########                     Grid_vdw_energy:          -34.394371
##########                      Grid_es_energy:           -0.192657
##########           Internal_energy_repulsive:           24.324760

@<TRIPOS>MOLECULE
ZINC000541000201
 52 54 1 0 0
SMALL
USER_CHARGES


@<TRIPOS>ATOM
      1 C1        -15.9448   -4.0522   58.6333 C.3     1  ZINC000541000201    0.0400
      2 O2        -15.5790   -4.5618   57.3237 O.3     1  ZINC000541000201   -0.3500
      3 C3        -14.3997   -5.1953   57.2241 C.2     1  ZINC000541000201    0.4500
      4 O4        -14.3381   -6.3888   57.4020 O.2     1  ZINC000541000201   -0.4900
      5 C5        -13.1527   -4.4179   56.8902 C.3     1  ZINC000541000201    0.2100
      6 H6        -12.3567   -5.1093   56.6136 H       1  ZINC000541000201    0.1400
      7 N7        -12.7371   -3.6365   58.0577 N.am    1  ZINC000541000201   -0.7100
      8 C8        -11.4373   -3.5928   58.4113 C.2     1  ZINC000541000201    0.5800
      9 O9        -10.6094   -4.2005   57.7605 O.2     1  ZINC000541000201   -0.5300
     10 C10       -11.0188   -2.8070   59.5888 C.ar    1  ZINC000541000201   -0.2300
     11 C11       -11.9490   -2.0271   60.2912 C.ar    1  ZINC000541000201    0.0200
     12 C12       -11.5097   -1.3101   61.3853 C.ar    1  ZINC000541000201   -0.2000
     13 C13       -10.1699   -1.3832   61.7533 C.ar    1  ZINC000541000201    0.3500
     14 O14        -9.7330   -0.6813   62.8267 O.3     1  ZINC000541000201   -0.2900
     15 C15       -10.6529    0.2381   63.4189 C.3     1  ZINC000541000201    0.0800
     16 C16       -10.0550    0.8459   64.7120 C.3     1  ZINC000541000201   -0.1400
     17 C17       -10.8364    2.1754   64.8577 C.3     1  ZINC000541000201   -0.1200
     18 C18       -10.9878    2.6858   63.4098 C.3     1  ZINC000541000201   -0.1200
     19 C19       -10.8712    1.4540   62.4950 C.3     1  ZINC000541000201   -0.1200
     20 N20        -9.3157   -2.1293   61.0696 N.ar    1  ZINC000541000201   -0.5400
     21 C21        -9.6927   -2.8334   60.0231 C.ar    1  ZINC000541000201    0.1800
     22 C22       -13.4336   -3.4884   55.7378 C.ar    1  ZINC000541000201   -0.1300
     23 C23       -12.9974   -2.1772   55.7866 C.ar    1  ZINC000541000201   -0.0700
     24 C24       -13.2537   -1.3231   54.7314 C.ar    1  ZINC000541000201   -0.1300
     25 C25       -13.9489   -1.7821   53.6221 C.ar    1  ZINC000541000201    0.1200
     26 O26       -14.2019   -0.9439   52.5827 O.3     1  ZINC000541000201   -0.3200
     27 C27       -13.2278   -0.8933   51.5383 C.3     1  ZINC000541000201    0.4100
     28 F28       -11.9979   -0.4868   52.0669 F       1  ZINC000541000201   -0.2000
     29 F29       -13.0924   -2.1623   50.9650 F       1  ZINC000541000201   -0.2000
     30 C30       -14.3851   -3.0982   53.5755 C.ar    1  ZINC000541000201   -0.1900
     31 C31       -14.1222   -3.9496   54.6311 C.ar    1  ZINC000541000201   -0.0500
     32 H32       -16.9177   -3.5641   58.5744 H       1  ZINC000541000201    0.1000
     33 H33       -15.9948   -4.8777   59.3435 H       1  ZINC000541000201    0.0600
     34 H34       -15.1966   -3.3323   58.9650 H       1  ZINC000541000201    0.0600
     35 H35       -13.3975   -3.1508   58.5763 H       1  ZINC000541000201    0.4100
     36 H36       -12.9835   -1.9884   59.9833 H       1  ZINC000541000201    0.1600
     37 H37       -12.1983   -0.6986   61.9497 H       1  ZINC000541000201    0.1500
     38 H38       -11.6014   -0.2556   63.6302 H       1  ZINC000541000201    0.1000
     39 H39       -10.2390    0.1942   65.5661 H       1  ZINC000541000201    0.0700
     40 H40        -8.9884    1.0359   64.5923 H       1  ZINC000541000201    0.0800
     41 H41       -11.8149    1.9959   65.3033 H       1  ZINC000541000201    0.0700
     42 H42       -10.2686    2.8880   65.4560 H       1  ZINC000541000201    0.0700
     43 H43       -11.9624    3.1565   63.2799 H       1  ZINC000541000201    0.0700
     44 H44       -10.1952    3.3979   63.1802 H       1  ZINC000541000201    0.0700
     45 H45       -10.0220    1.5683   61.8214 H       1  ZINC000541000201    0.0800
     46 H46       -11.7890    1.3269   61.9211 H       1  ZINC000541000201    0.0700
     47 H47        -8.9673   -3.4306   59.4907 H       1  ZINC000541000201    0.1600
     48 H48       -12.4562   -1.8204   56.6503 H       1  ZINC000541000201    0.1300
     49 H49       -12.9133   -0.2989   54.7703 H       1  ZINC000541000201    0.1400
     50 H50       -13.5485   -0.1828   50.7764 H       1  ZINC000541000201    0.1900
     51 H51       -14.9269   -3.4578   52.7131 H       1  ZINC000541000201    0.1400
     52 H52       -14.4612   -4.9744   54.5951 H       1  ZINC000541000201    0.1400
@<TRIPOS>BOND
     1     1     2    1
     2     1    32    1
     3     1    33    1
     4     1    34    1
     5     2     3    1
     6     3     4    2
     7     3     5    1
     8     5     6    1
     9     5     7    1
    10     5    22    1
    11     7     8   am
    12     7    35    1
    13     8     9    2
    14     8    10    1
    15    10    21   ar
    16    10    11   ar
    17    11    12   ar
    18    11    36    1
    19    12    13   ar
    20    12    37    1
    21    13    14    1
    22    13    20   ar
    23    14    15    1
    24    15    19    1
    25    15    16    1
    26    15    38    1
    27    16    17    1
    28    16    39    1
    29    16    40    1
    30    17    18    1
    31    17    41    1
    32    17    42    1
    33    18    19    1
    34    18    43    1
    35    18    44    1
    36    19    45    1
    37    19    46    1
    38    20    21   ar
    39    21    47    1
    40    22    31   ar
    41    22    23   ar
    42    23    24   ar
    43    23    48    1
    44    24    25   ar
    45    24    49    1
    46    25    26    1
    47    25    30   ar
    48    26    27    1
    49    27    28    1
    50    27    29    1
    51    27    50    1
    52    30    31   ar
    53    30    51    1
    54    31    52    1
@<TRIPOS>SUBSTRUCTURE
     1 ZINC000541000201        1 TEMP              0 ****  ****    0 ROOT


##########                                Name:    ZINC000643274279
##########                DOCK_Rotatable_Bonds:                   6
##########                         Heavy_Atoms:                  29
##########                    Molecular_Weight:             392.454
##########                DOCK_Rotatable_Bonds:                   6
##########                       Formal_Charge:         -0.00999939
##########                     HBond_Acceptors:                   6
##########                        HBond_Donors:                   2
##########                         Heavy_Atoms:                  29
##########                          Grid_Score:          -34.572475
##########                     Grid_vdw_energy:          -32.587147
##########                      Grid_es_energy:           -1.985330
##########           Internal_energy_repulsive:           10.614914

@<TRIPOS>MOLECULE
ZINC000643274279
 53 56 1 0 0
SMALL
USER_CHARGES


@<TRIPOS>ATOM
      1 O1        -13.0546   -2.1097   61.5988 O.2     1  ZINC000643274279   -0.4900
      2 C2        -13.4914   -1.0352   61.2411 C.2     1  ZINC000643274279    0.5100
      3 N3        -14.0720   -0.9127   60.0310 N.am    1  ZINC000643274279   -0.6400
      4 C4        -14.1661   -2.0217   59.1857 C.ar    1  ZINC000643274279    0.1300
      5 C5        -15.1314   -2.9941   59.4219 C.ar    1  ZINC000643274279   -0.1000
      6 C6        -15.2245   -4.1019   58.5970 C.ar    1  ZINC000643274279   -0.1000
      7 C7        -14.3556   -4.2432   57.5377 C.ar    1  ZINC000643274279   -0.0600
      8 C8        -14.4084   -5.4905   56.6729 C.3     1  ZINC000643274279   -0.0900
      9 C9        -14.8900   -5.1137   55.2765 C.3     1  ZINC000643274279   -0.1200
     10 C10       -13.7331   -4.6931   54.3827 C.3     1  ZINC000643274279   -0.1100
     11 C11       -13.1366   -3.3538   54.7349 C.3     1  ZINC000643274279   -0.1600
     12 C12       -12.5062   -3.4100   56.1129 C.2     1  ZINC000643274279    0.4100
     13 O13       -11.3124   -3.5694   56.2523 O.2     1  ZINC000643274279   -0.4400
     14 C14       -13.3986   -3.2630   57.2760 C.ar    1  ZINC000643274279   -0.1300
     15 C15       -13.2998   -2.1470   58.1092 C.ar    1  ZINC000643274279   -0.1000
     16 C16       -13.3908    0.1500   62.1445 C.2     1  ZINC000643274279    0.5200
     17 O17       -14.3625    0.8515   62.3355 O.2     1  ZINC000643274279   -0.5000
     18 N18       -12.2211    0.4402   62.7477 N.am    1  ZINC000643274279   -0.5800
     19 C19       -11.9824    1.5738   63.6594 C.3     1  ZINC000643274279    0.0900
     20 C20       -10.7766    1.1369   64.5282 C.3     1  ZINC000643274279   -0.1400
     21 C21        -9.9139    0.3626   63.4970 C.3     1  ZINC000643274279   -0.1200
     22 C22       -10.9732   -0.3251   62.6103 C.3     1  ZINC000643274279    0.1800
     23 H23       -11.1241   -1.3524   62.9421 H       1  ZINC000643274279    0.0900
     24 C24       -10.5241   -0.3121   61.1718 C.ar    1  ZINC000643274279   -0.1000
     25 C25       -10.6547    0.8398   60.4184 C.ar    1  ZINC000643274279   -0.0900
     26 C26       -10.2438    0.8543   59.0996 C.ar    1  ZINC000643274279   -0.1400
     27 C27        -9.6992   -0.2882   58.5314 C.ar    1  ZINC000643274279    0.1100
     28 O28        -9.2939   -0.2763   57.2343 O.3     1  ZINC000643274279   -0.5000
     29 C29        -9.5689   -1.4426   59.2896 C.ar    1  ZINC000643274279   -0.1400
     30 C30        -9.9768   -1.4506   60.6094 C.ar    1  ZINC000643274279   -0.0900
     31 H31       -14.4245   -0.0549   59.7468 H       1  ZINC000643274279    0.4200
     32 H32       -15.8119   -2.8849   60.2534 H       1  ZINC000643274279    0.1400
     33 H33       -15.9766   -4.8540   58.7839 H       1  ZINC000643274279    0.1400
     34 H34       -13.4136   -5.9310   56.6082 H       1  ZINC000643274279    0.0800
     35 H35       -15.0980   -6.2103   57.1140 H       1  ZINC000643274279    0.0800
     36 H36       -15.3921   -5.9717   54.8293 H       1  ZINC000643274279    0.0800
     37 H37       -15.5983   -4.2888   55.3544 H       1  ZINC000643274279    0.0700
     38 H38       -12.9508   -5.4493   54.4492 H       1  ZINC000643274279    0.0700
     39 H39       -14.0870   -4.6549   53.3524 H       1  ZINC000643274279    0.0800
     40 H40       -12.3756   -3.0924   53.9997 H       1  ZINC000643274279    0.0900
     41 H41       -13.9200   -2.5958   54.7264 H       1  ZINC000643274279    0.0900
     42 H42       -12.5532   -1.3900   57.9197 H       1  ZINC000643274279    0.1300
     43 H43       -11.7359    2.4714   63.0923 H       1  ZINC000643274279    0.0800
     44 H44       -12.8577    1.7480   64.2853 H       1  ZINC000643274279    0.1000
     45 H45       -10.2396    2.0029   64.9151 H       1  ZINC000643274279    0.0900
     46 H46       -11.0964    0.4830   65.3396 H       1  ZINC000643274279    0.0800
     47 H47        -9.3031    1.0499   62.9118 H       1  ZINC000643274279    0.0800
     48 H48        -9.2908   -0.3799   63.9956 H       1  ZINC000643274279    0.0900
     49 H49       -11.0787    1.7290   60.8612 H       1  ZINC000643274279    0.1200
     50 H50       -10.3467    1.7541   58.5113 H       1  ZINC000643274279    0.1300
     51 H51        -9.4463    0.5648   56.7822 H       1  ZINC000643274279    0.3900
     52 H52        -9.1456   -2.3334   58.8494 H       1  ZINC000643274279    0.1300
     53 H53        -9.8752   -2.3488   61.2001 H       1  ZINC000643274279    0.1300
@<TRIPOS>BOND
     1     1     2    2
     2     2     3   am
     3     2    16    1
     4     3     4    1
     5     3    31    1
     6     4    15   ar
     7     4     5   ar
     8     5     6   ar
     9     5    32    1
    10     6     7   ar
    11     6    33    1
    12     7    14   ar
    13     7     8    1
    14     8     9    1
    15     8    34    1
    16     8    35    1
    17     9    10    1
    18     9    36    1
    19     9    37    1
    20    10    11    1
    21    10    38    1
    22    10    39    1
    23    11    12    1
    24    11    40    1
    25    11    41    1
    26    12    13    2
    27    12    14    1
    28    14    15   ar
    29    15    42    1
    30    16    17    2
    31    16    18   am
    32    18    22    1
    33    18    19    1
    34    19    20    1
    35    19    43    1
    36    19    44    1
    37    20    21    1
    38    20    45    1
    39    20    46    1
    40    21    22    1
    41    21    47    1
    42    21    48    1
    43    22    23    1
    44    22    24    1
    45    24    30   ar
    46    24    25   ar
    47    25    26   ar
    48    25    49    1
    49    26    27   ar
    50    26    50    1
    51    27    28    1
    52    27    29   ar
    53    28    51    1
    54    29    30   ar
    55    29    52    1
    56    30    53    1
@<TRIPOS>SUBSTRUCTURE
     1 ZINC000643274279        1 TEMP              0 ****  ****    0 ROOT


##########                                Name:    ZINC000355549087
##########                DOCK_Rotatable_Bonds:                   9
##########                         Heavy_Atoms:                  23
##########                    Molecular_Weight:             336.415
##########                DOCK_Rotatable_Bonds:                   9
##########                       Formal_Charge:        -9.53674e-07
##########                     HBond_Acceptors:                   8
##########                        HBond_Donors:                   4
##########                         Heavy_Atoms:                  23
##########                          Grid_Score:          -34.551563
##########                     Grid_vdw_energy:          -32.568363
##########                      Grid_es_energy:           -1.983200
##########           Internal_energy_repulsive:           15.320490

@<TRIPOS>MOLECULE
ZINC000355549087
 43 44 1 0 0
SMALL
USER_CHARGES


@<TRIPOS>ATOM
      1 C1        -13.2022   -1.6491   52.0062 C.3     1  <0>        -0.1500
      2 C2        -13.7251   -2.4316   53.2125 C.3     1  <0>        -0.1200
      3 C3        -12.5462   -3.0340   53.9795 C.3     1  <0>        -0.1000
      4 H4        -11.8006   -2.2608   54.1655 H       1  <0>         0.0800
      5 C5        -11.9199   -4.1579   53.1517 C.3     1  <0>        -0.1500
      6 C6        -13.0402   -3.5975   55.3135 C.3     1  <0>         0.0900
      7 H7        -13.9290   -3.0525   55.6313 H       1  <0>         0.1000
      8 O8        -13.3603   -4.9813   55.1568 O.3     1  <0>        -0.3500
      9 C9        -14.7611   -5.2614   55.1931 C.3     1  <0>         0.0200
     10 C10       -11.9599   -3.4464   56.3534 C.2     1  <0>         0.5100
     11 O11       -10.9016   -2.9330   56.0581 O.2     1  <0>        -0.4800
     12 N12       -12.1699   -3.8817   57.6115 N.am    1  <0>        -0.6200
     13 C13       -11.1744   -3.7409   58.5707 C.2     1  <0>         0.2400
     14 N14       -11.1398   -2.8086   59.4686 N.2     1  <0>        -0.5000
     15 C15       -10.1139   -2.8226   60.3094 C.2     1  <0>         0.1700
     16 C16        -9.9420   -1.8175   61.3894 C.2     1  <0>        -0.1100
     17 C17        -8.9725   -1.8232   62.3509 C.2     1  <0>         0.0600
     18 N18        -9.1514   -0.7420   63.1486 N.pl3   1  <0>        -0.5400
     19 C19       -10.2430   -0.0341   62.6993 C.2     1  <0>        -0.0600
     20 C20       -10.7712    1.2018   63.2876 C.2     1  <0>         0.5900
     21 N21       -10.7153    1.3910   64.6208 N.am    1  <0>        -0.8600
     22 O22       -11.2600    2.0559   62.5717 O.2     1  <0>        -0.5300
     23 C23       -10.7450   -0.6818   61.6052 C.2     1  <0>        -0.0600
     24 C24        -9.2427   -3.8259   60.0993 C.2     1  <0>        -0.3200
     25 S25        -9.8261   -4.7780   58.7369 S.3     1  <0>         0.2500
     26 H26       -14.0421   -1.2200   51.4597 H       1  <0>         0.0600
     27 H27       -12.5451   -0.8499   52.3486 H       1  <0>         0.0600
     28 H28       -12.6471   -2.3202   51.3507 H       1  <0>         0.0600
     29 H29       -14.2802   -1.7606   53.8680 H       1  <0>         0.0600
     30 H30       -14.3823   -3.2310   52.8701 H       1  <0>         0.0700
     31 H31       -12.6655   -4.9310   52.9658 H       1  <0>         0.0700
     32 H32       -11.5680   -3.7565   52.2013 H       1  <0>         0.0600
     33 H33       -11.0800   -4.5870   53.6981 H       1  <0>         0.0500
     34 H34       -14.9166   -6.3401   55.1674 H       1  <0>         0.0900
     35 H35       -15.1894   -4.8543   56.1090 H       1  <0>         0.0500
     36 H36       -15.2456   -4.8038   54.3306 H       1  <0>         0.0500
     37 H37       -13.0160   -4.2934   57.8474 H       1  <0>         0.4200
     38 H38        -8.1942   -2.5644   62.4577 H       1  <0>         0.1800
     39 H39        -8.6005   -0.5060   63.9113 H       1  <0>         0.4200
     40 H40       -11.0635    2.2087   65.0096 H       1  <0>         0.4000
     41 H41       -10.3268    0.7097   65.1916 H       1  <0>         0.4100
     42 H42       -11.6015   -0.3818   61.0197 H       1  <0>         0.1500
     43 H43        -8.3450   -4.0164   60.6684 H       1  <0>         0.1800
@<TRIPOS>BOND
     1     1     2    1
     2     1    26    1
     3     1    27    1
     4     1    28    1
     5     2     3    1
     6     2    29    1
     7     2    30    1
     8     3     4    1
     9     3     5    1
    10     3     6    1
    11     5    31    1
    12     5    32    1
    13     5    33    1
    14     6     7    1
    15     6     8    1
    16     6    10    1
    17     8     9    1
    18     9    34    1
    19     9    35    1
    20     9    36    1
    21    10    11    2
    22    10    12   am
    23    12    13    1
    24    12    37    1
    25    13    25    1
    26    13    14    2
    27    14    15    1
    28    15    16    1
    29    15    24    2
    30    16    23    1
    31    16    17    2
    32    17    18    1
    33    17    38    1
    34    18    19    1
    35    18    39    1
    36    19    20    1
    37    19    23    2
    38    20    21   am
    39    20    22    2
    40    21    40    1
    41    21    41    1
    42    23    42    1
    43    24    25    1
    44    24    43    1
@<TRIPOS>SUBSTRUCTURE
     1 <0>         1 TEMP              0 ****  ****    0 ROOT


##########                                Name:    ZINC001109404798
##########                DOCK_Rotatable_Bonds:                   7
##########                         Heavy_Atoms:                  25
##########                    Molecular_Weight:              360.48
##########                DOCK_Rotatable_Bonds:                   7
##########                       Formal_Charge:           0.0100002
##########                     HBond_Acceptors:                   7
##########                        HBond_Donors:                   1
##########                         Heavy_Atoms:                  25
##########                          Grid_Score:          -34.518486
##########                     Grid_vdw_energy:          -33.828419
##########                      Grid_es_energy:           -0.690066
##########           Internal_energy_repulsive:           28.192013

@<TRIPOS>MOLECULE
ZINC001109404798
 49 52 1 0 0
SMALL
USER_CHARGES


@<TRIPOS>ATOM
      1 C1          1.8774   -0.3785   41.2622 C.3     1  ZINC001109404798   -0.0600
      2 C2          1.4231    0.5223   42.3817 C.2     1  ZINC001109404798    0.1700
      3 N3          2.1740    1.0313   43.3122 N.2     1  ZINC001109404798   -0.3900
      4 O4          1.5085    1.7130   44.0629 O.3     1  ZINC001109404798    0.1000
      5 C5          0.2309    1.7032   43.6708 C.2     1  ZINC001109404798    0.1900
      6 C6         -0.9164    2.4229   44.3319 C.3     1  ZINC001109404798    0.1600
      7 H7         -1.8497    1.9107   44.0981 H       1  ZINC001109404798    0.1000
      8 C8         -0.9812    3.8618   43.8156 C.3     1  ZINC001109404798   -0.1500
      9 N9         -0.7146    2.4334   45.7869 N.3     1  ZINC001109404798   -0.4800
     10 C10        -0.7350    1.0342   46.3449 C.3     1  ZINC001109404798    0.0400
     11 H11         0.0578    0.3718   45.9973 H       1  ZINC001109404798    0.1100
     12 C12        -2.1862    0.5921   45.9880 C.3     1  ZINC001109404798   -0.1600
     13 C13        -3.0004    1.9050   46.0915 C.3     1  ZINC001109404798   -0.1600
     14 C14        -1.9322    2.9651   46.4971 C.3     1  ZINC001109404798    0.0400
     15 H15        -2.1930    4.0016   46.2832 H       1  ZINC001109404798    0.1200
     16 C16        -1.5943    2.6494   47.9853 C.3     1  ZINC001109404798    0.1500
     17 H17        -0.9889    3.4456   48.4185 H       1  ZINC001109404798    0.1000
     18 N18        -2.8207    2.4550   48.7627 N.am    1  ZINC001109404798   -0.7200
     19 C19        -2.8102    2.6458   50.0968 C.2     1  ZINC001109404798    0.5100
     20 O20        -1.7859    2.9800   50.6536 O.2     1  ZINC001109404798   -0.5300
     21 C21        -4.0714    2.4441   50.8968 C.3     1  ZINC001109404798   -0.1300
     22 C22        -4.9457    1.3907   50.2136 C.3     1  ZINC001109404798   -0.0400
     23 C23        -6.2028    1.1826   51.0182 C.2     1  ZINC001109404798   -0.1000
     24 C24        -6.7456    2.1467   51.7632 C.2     1  ZINC001109404798   -0.2100
     25 S25        -8.1951    1.5375   52.5516 S.3     1  ZINC001109404798    0.1000
     26 C26        -7.9760   -0.0388   51.8027 C.2     1  ZINC001109404798   -0.2100
     27 C27        -6.8851   -0.0216   51.0353 C.2     1  ZINC001109404798   -0.1300
     28 C28        -0.7465    1.3241   47.8762 C.3     1  ZINC001109404798   -0.1100
     29 N29         0.1671    0.9518   42.5980 N.2     1  ZINC001109404798   -0.4800
     30 H30         2.1668    0.2271   40.4033 H       1  ZINC001109404798    0.0900
     31 H31         2.7312   -0.9689   41.5946 H       1  ZINC001109404798    0.0900
     32 H32         1.0628   -1.0449   40.9789 H       1  ZINC001109404798    0.0900
     33 H33        -1.1308    3.8540   42.7359 H       1  ZINC001109404798    0.0700
     34 H34        -1.8109    4.3822   44.2938 H       1  ZINC001109404798    0.0800
     35 H35        -0.0478    4.3740   44.0493 H       1  ZINC001109404798    0.0800
     36 H36        -2.2277    0.1937   44.9743 H       1  ZINC001109404798    0.0700
     37 H37        -2.5508   -0.1430   46.7055 H       1  ZINC001109404798    0.0800
     38 H38        -3.4453    2.1575   45.1290 H       1  ZINC001109404798    0.0700
     39 H39        -3.7685    1.8207   46.8602 H       1  ZINC001109404798    0.0800
     40 H40        -3.6402    2.1888   48.3173 H       1  ZINC001109404798    0.4000
     41 H41        -3.8146    2.1074   51.9012 H       1  ZINC001109404798    0.0900
     42 H42        -4.6175    3.3855   50.9577 H       1  ZINC001109404798    0.1000
     43 H43        -5.2077    1.7304   49.2115 H       1  ZINC001109404798    0.0800
     44 H44        -4.3973    0.4511   50.1470 H       1  ZINC001109404798    0.0800
     45 H45        -6.3546    3.1481   51.8670 H       1  ZINC001109404798    0.1600
     46 H46        -8.6277   -0.8890   51.9396 H       1  ZINC001109404798    0.1600
     47 H47        -6.5547   -0.8845   50.4760 H       1  ZINC001109404798    0.1400
     48 H48        -1.2418    0.5074   48.4015 H       1  ZINC001109404798    0.0800
     49 H49         0.2594    1.4787   48.2665 H       1  ZINC001109404798    0.0900
@<TRIPOS>BOND
     1     1     2    1
     2     1    30    1
     3     1    31    1
     4     1    32    1
     5     2    29    1
     6     2     3    2
     7     3     4    1
     8     4     5    1
     9     5     6    1
    10     5    29    2
    11     6     7    1
    12     6     8    1
    13     6     9    1
    14     8    33    1
    15     8    34    1
    16     8    35    1
    17     9    14    1
    18     9    10    1
    19    10    11    1
    20    10    28    1
    21    10    12    1
    22    12    13    1
    23    12    36    1
    24    12    37    1
    25    13    14    1
    26    13    38    1
    27    13    39    1
    28    14    15    1
    29    14    16    1
    30    16    17    1
    31    16    18    1
    32    16    28    1
    33    18    19   am
    34    18    40    1
    35    19    20    2
    36    19    21    1
    37    21    22    1
    38    21    41    1
    39    21    42    1
    40    22    23    1
    41    22    43    1
    42    22    44    1
    43    23    27    1
    44    23    24    2
    45    24    25    1
    46    24    45    1
    47    25    26    1
    48    26    27    2
    49    26    46    1
    50    27    47    1
    51    28    48    1
    52    28    49    1
@<TRIPOS>SUBSTRUCTURE
     1 ZINC001109404798        1 TEMP              0 ****  ****    0 ROOT


##########                                Name:    ZINC000742270208
##########                DOCK_Rotatable_Bonds:                   5
##########                         Heavy_Atoms:                  25
##########                    Molecular_Weight:             376.328
##########                DOCK_Rotatable_Bonds:                   5
##########                       Formal_Charge:                0.02
##########                     HBond_Acceptors:                   9
##########                        HBond_Donors:                   0
##########                         Heavy_Atoms:                  25
##########                          Grid_Score:          -34.511471
##########                     Grid_vdw_energy:          -33.984463
##########                      Grid_es_energy:           -0.527006
##########           Internal_energy_repulsive:            9.017043

@<TRIPOS>MOLECULE
ZINC000742270208
 37 38 1 0 0
SMALL
USER_CHARGES


@<TRIPOS>ATOM
      1 C1        -11.6542   -4.1623   52.6949 C.3     1  ZINC000742270208   -0.1400
      2 C2        -12.5678   -3.2450   53.5104 C.3     1  ZINC000742270208   -0.1400
      3 C3        -13.8635   -2.9961   52.7358 C.3     1  ZINC000742270208   -0.1400
      4 C4        -12.8888   -3.8995   54.8293 C.2     1  ZINC000742270208    0.4000
      5 O5        -13.8282   -4.6613   54.9154 O.2     1  ZINC000742270208   -0.4300
      6 C6        -12.0621   -3.6140   56.0129 C.ar    1  ZINC000742270208   -0.1000
      7 C7        -11.6113   -2.3131   56.2582 C.ar    1  ZINC000742270208   -0.0900
      8 C8        -10.8370   -2.0537   57.3694 C.ar    1  ZINC000742270208   -0.0200
      9 C9        -10.5057   -3.0768   58.2406 C.ar    1  ZINC000742270208   -0.6800
     10 S10        -9.5159   -2.7350   59.6577 S.o2    1  ZINC000742270208    2.6600
     11 O11        -8.6800   -3.8686   59.8461 O.2     1  ZINC000742270208   -0.9300
     12 O12        -9.0120   -1.4174   59.4869 O.2     1  ZINC000742270208   -0.9000
     13 O13       -10.4500   -2.6856   60.8584 O.3     1  ZINC000742270208   -0.6400
     14 C14       -10.4494   -1.4924   61.5110 C.ar    1  ZINC000742270208    0.0500
     15 C15       -11.3973   -0.5282   61.1973 C.ar    1  ZINC000742270208    0.0900
     16 F16       -12.3216   -0.7742   60.2431 F       1  ZINC000742270208   -0.0900
     17 C17       -11.3953    0.6865   61.8636 C.ar    1  ZINC000742270208    0.1100
     18 F18       -12.3177    1.6252   61.5586 F       1  ZINC000742270208   -0.1000
     19 C19       -10.4490    0.9387   62.8420 C.ar    1  ZINC000742270208   -0.1100
     20 C20        -9.5025   -0.0216   63.1561 C.ar    1  ZINC000742270208    0.1200
     21 F21        -8.5800    0.2270   64.1113 F       1  ZINC000742270208   -0.1000
     22 C22        -9.5044   -1.2394   62.4958 C.ar    1  ZINC000742270208    0.1200
     23 F23        -8.5808   -2.1763   62.8029 F       1  ZINC000742270208   -0.0900
     24 C24       -10.9481   -4.3669   58.0048 C.ar    1  ZINC000742270208   -0.0300
     25 C25       -11.7282   -4.6412   56.9014 C.ar    1  ZINC000742270208   -0.0800
     26 H26       -11.4220   -3.6890   51.7409 H       1  ZINC000742270208    0.0700
     27 H27       -10.7312   -4.3396   53.2468 H       1  ZINC000742270208    0.0600
     28 H28       -12.1587   -5.1119   52.5161 H       1  ZINC000742270208    0.0600
     29 H29       -12.0632   -2.2955   53.6892 H       1  ZINC000742270208    0.1000
     30 H30       -14.3680   -3.9457   52.5570 H       1  ZINC000742270208    0.0700
     31 H31       -14.5144   -2.3428   53.3167 H       1  ZINC000742270208    0.0600
     32 H32       -13.6313   -2.5228   51.7817 H       1  ZINC000742270208    0.0700
     33 H33       -11.8684   -1.5139   55.5789 H       1  ZINC000742270208    0.1500
     34 H34       -10.4880   -1.0496   57.5602 H       1  ZINC000742270208    0.1500
     35 H35       -10.4490    1.8859   63.3609 H       1  ZINC000742270208    0.1900
     36 H36       -10.6853   -5.1599   58.6892 H       1  ZINC000742270208    0.1500
     37 H37       -12.0727   -5.6484   56.7187 H       1  ZINC000742270208    0.1500
@<TRIPOS>BOND
     1     1     2    1
     2     1    26    1
     3     1    27    1
     4     1    28    1
     5     2     3    1
     6     2     4    1
     7     2    29    1
     8     3    30    1
     9     3    31    1
    10     3    32    1
    11     4     5    2
    12     4     6    1
    13     6    25   ar
    14     6     7   ar
    15     7     8   ar
    16     7    33    1
    17     8     9   ar
    18     8    34    1
    19     9    10    1
    20     9    24   ar
    21    10    11    2
    22    10    12    2
    23    10    13    1
    24    13    14    1
    25    14    22   ar
    26    14    15   ar
    27    15    16    1
    28    15    17   ar
    29    17    18    1
    30    17    19   ar
    31    19    20   ar
    32    19    35    1
    33    20    21    1
    34    20    22   ar
    35    22    23    1
    36    24    25   ar
    37    24    36    1
    38    25    37    1
@<TRIPOS>SUBSTRUCTURE
     1 ZINC000742270208        1 TEMP              0 ****  ****    0 ROOT


##########                                Name:    ZINC001141221454
##########                DOCK_Rotatable_Bonds:                   7
##########                         Heavy_Atoms:                  27
##########                    Molecular_Weight:             369.439
##########                DOCK_Rotatable_Bonds:                   7
##########                       Formal_Charge:          0.00999935
##########                     HBond_Acceptors:                   6
##########                        HBond_Donors:                   1
##########                         Heavy_Atoms:                  27
##########                          Grid_Score:          -34.474648
##########                     Grid_vdw_energy:          -33.439537
##########                      Grid_es_energy:           -1.035111
##########           Internal_energy_repulsive:           15.782230

@<TRIPOS>MOLECULE
ZINC001141221454
 51 54 1 0 0
SMALL
USER_CHARGES


@<TRIPOS>ATOM
      1 C1         -9.7116   -2.8022   61.1593 C.3     1  ZINC001141221454    0.0300
      2 O2        -10.1377   -2.0351   60.0314 O.3     1  ZINC001141221454   -0.3100
      3 C3        -10.5289   -2.7258   58.9276 C.ar    1  ZINC001141221454    0.0900
      4 C4        -10.2935   -4.0891   58.8418 C.ar    1  ZINC001141221454   -0.1800
      5 C5        -10.6925   -4.7894   57.7189 C.ar    1  ZINC001141221454   -0.0900
      6 C6        -11.3261   -4.1322   56.6810 C.ar    1  ZINC001141221454   -0.1200
      7 C7        -11.5626   -2.7720   56.7622 C.ar    1  ZINC001141221454   -0.0800
      8 C8        -12.2532   -2.0587   55.6285 C.3     1  ZINC001141221454    0.0900
      9 N9        -11.2479   -1.5430   54.6898 N.3     1  ZINC001141221454   -0.5100
     10 C10       -11.7559   -1.5765   53.2939 C.3     1  ZINC001141221454    0.0300
     11 C11       -10.8535   -0.5509   52.5597 C.3     1  ZINC001141221454   -0.0700
     12 C12       -10.6530    0.5454   53.6222 C.3     1  ZINC001141221454   -0.1000
     13 C13       -11.0485    1.9907   53.3487 C.3     1  ZINC001141221454   -0.1400
     14 C14        -9.5709    1.6059   53.4673 C.3     1  ZINC001141221454   -0.1800
     15 H15        -9.0398    1.9184   54.3664 H       1  ZINC001141221454    0.1300
     16 C16        -8.7525    1.5872   52.2021 C.2     1  ZINC001141221454    0.5500
     17 O17        -9.0330    2.3325   51.2873 O.2     1  ZINC001141221454   -0.5300
     18 N18        -7.7088    0.7422   52.0870 N.am    1  ZINC001141221454   -0.7300
     19 C19        -6.9143    0.7227   50.8564 C.3     1  ZINC001141221454    0.1700
     20 C20        -5.6410    1.5004   51.0681 C.ar    1  ZINC001141221454   -0.1600
     21 C21        -4.5390    1.2771   50.2573 C.ar    1  ZINC001141221454   -0.0600
     22 C22        -3.3888    2.0164   50.4885 C.ar    1  ZINC001141221454   -0.1700
     23 C23        -3.3792    2.9445   51.5122 C.ar    1  ZINC001141221454    0.1100
     24 N24        -4.4467    3.1305   52.2642 N.ar    1  ZINC001141221454   -0.4800
     25 C25        -5.5589    2.4496   52.0697 C.ar    1  ZINC001141221454    0.1200
     26 C26       -10.9361   -0.1232   54.9732 C.3     1  ZINC001141221454    0.0700
     27 C27       -11.1707   -2.0674   57.8857 C.ar    1  ZINC001141221454    0.0900
     28 F28       -11.4014   -0.7386   57.9655 F       1  ZINC001141221454   -0.1300
     29 H29        -9.4275   -2.1303   61.9692 H       1  ZINC001141221454    0.1000
     30 H30       -10.5270   -3.4455   61.4901 H       1  ZINC001141221454    0.0600
     31 H31        -8.8555   -3.4157   60.8790 H       1  ZINC001141221454    0.0600
     32 H32        -9.7983   -4.6038   59.6518 H       1  ZINC001141221454    0.1400
     33 H33       -10.5087   -5.8516   57.6523 H       1  ZINC001141221454    0.1300
     34 H34       -11.6369   -4.6820   55.8049 H       1  ZINC001141221454    0.1300
     35 H35       -12.9122   -2.7544   55.1092 H       1  ZINC001141221454    0.0600
     36 H36       -12.8396   -1.2296   56.0246 H       1  ZINC001141221454    0.0900
     37 H37       -11.6350   -2.5712   52.8648 H       1  ZINC001141221454    0.0800
     38 H38       -12.8000   -1.2654   53.2573 H       1  ZINC001141221454    0.0500
     39 H39        -9.9000   -1.0019   52.2852 H       1  ZINC001141221454    0.0900
     40 H40       -11.3596   -0.1499   51.6815 H       1  ZINC001141221454    0.0700
     41 H41       -11.4284    2.2293   52.3554 H       1  ZINC001141221454    0.1000
     42 H42       -11.4891    2.5562   54.1697 H       1  ZINC001141221454    0.1100
     43 H43        -7.4837    0.1470   52.8191 H       1  ZINC001141221454    0.4000
     44 H44        -6.6718   -0.3077   50.5967 H       1  ZINC001141221454    0.0800
     45 H45        -7.4867    1.1763   50.0472 H       1  ZINC001141221454    0.0800
     46 H46        -4.5753    0.5446   49.4644 H       1  ZINC001141221454    0.1400
     47 H47        -2.5114    1.8684   49.8764 H       1  ZINC001141221454    0.1400
     48 H48        -2.4873    3.5240   51.6990 H       1  ZINC001141221454    0.1600
     49 H49        -6.4129    2.6292   52.7060 H       1  ZINC001141221454    0.1600
     50 H50       -11.7878    0.3565   55.4555 H       1  ZINC001141221454    0.0500
     51 H51       -10.0572   -0.0552   55.6143 H       1  ZINC001141221454    0.0900
@<TRIPOS>BOND
     1     1     2    1
     2     1    29    1
     3     1    30    1
     4     1    31    1
     5     2     3    1
     6     3    27   ar
     7     3     4   ar
     8     4     5   ar
     9     4    32    1
    10     5     6   ar
    11     5    33    1
    12     6     7   ar
    13     6    34    1
    14     7     8    1
    15     7    27   ar
    16     8     9    1
    17     8    35    1
    18     8    36    1
    19     9    26    1
    20     9    10    1
    21    10    11    1
    22    10    37    1
    23    10    38    1
    24    11    12    1
    25    11    39    1
    26    11    40    1
    27    12    14    1
    28    12    13    1
    29    12    26    1
    30    13    14    1
    31    13    41    1
    32    13    42    1
    33    14    15    1
    34    14    16    1
    35    16    17    2
    36    16    18   am
    37    18    19    1
    38    18    43    1
    39    19    20    1
    40    19    44    1
    41    19    45    1
    42    20    25   ar
    43    20    21   ar
    44    21    22   ar
    45    21    46    1
    46    22    23   ar
    47    22    47    1
    48    23    24   ar
    49    23    48    1
    50    24    25   ar
    51    25    49    1
    52    26    50    1
    53    26    51    1
    54    27    28    1
@<TRIPOS>SUBSTRUCTURE
     1 ZINC001141221454        1 TEMP              0 ****  ****    0 ROOT


##########                                Name:    ZINC000676204775
##########                DOCK_Rotatable_Bonds:                   4
##########                         Heavy_Atoms:                  25
##########                    Molecular_Weight:             359.452
##########                DOCK_Rotatable_Bonds:                   4
##########                       Formal_Charge:          0.00999978
##########                     HBond_Acceptors:                   8
##########                        HBond_Donors:                   2
##########                         Heavy_Atoms:                  25
##########                          Grid_Score:          -34.453346
##########                     Grid_vdw_energy:          -33.898682
##########                      Grid_es_energy:           -0.554667
##########           Internal_energy_repulsive:           11.216072

@<TRIPOS>MOLECULE
ZINC000676204775
 46 49 1 0 0
SMALL
USER_CHARGES


@<TRIPOS>ATOM
      1 C1        -10.3068   -1.0029   60.4386 C.3     1  ZINC000676204775   -0.1600
      2 C2         -9.4997   -2.1001   59.7415 C.3     1  ZINC000676204775    0.1600
      3 C3         -9.2709   -3.2598   60.7128 C.3     1  ZINC000676204775   -0.1600
      4 N4        -10.2386   -2.5813   58.5717 N.pl3   1  ZINC000676204775   -0.3900
      5 N5        -10.6918   -3.8906   58.3803 N.2     1  ZINC000676204775   -0.2500
      6 C6        -11.3123   -3.9872   57.2393 C.2     1  ZINC000676204775    0.0900
      7 C7        -11.2873   -2.6728   56.6057 C.ar    1  ZINC000676204775   -0.2100
      8 C8        -11.7792   -2.1658   55.3980 C.ar    1  ZINC000676204775    0.0800
      9 C9        -11.5846   -0.8506   55.0890 C.ar    1  ZINC000676204775   -0.7200
     10 S10       -12.2039   -0.2105   53.5686 S.o2    1  ZINC000676204775    2.6900
     11 O11       -13.1763   -1.1390   53.1087 O.2     1  ZINC000676204775   -0.9300
     12 O12       -12.4877    1.1629   53.7974 O.2     1  ZINC000676204775   -0.9600
     13 N13       -10.9607   -0.2553   52.4755 N.am    1  ZINC000676204775   -1.1100
     14 C14        -9.7273    0.4903   52.7380 C.3     1  ZINC000676204775    0.2400
     15 H15        -9.4435    0.3750   53.7841 H       1  ZINC000676204775    0.1000
     16 C16        -9.9430    1.9754   52.4210 C.3     1  ZINC000676204775   -0.1200
     17 C17        -8.6026    2.7126   52.4617 C.3     1  ZINC000676204775   -0.1200
     18 C18        -7.7568    2.3164   51.2450 C.3     1  ZINC000676204775   -0.0400
     19 C19        -7.7234    0.8101   51.1649 C.2     1  ZINC000676204775   -0.2300
     20 C20        -6.8785    0.0300   50.4659 C.2     1  ZINC000676204775    0.0600
     21 N21        -7.2230   -1.2566   50.6975 N.pl3   1  ZINC000676204775   -0.4800
     22 N22        -8.3210   -1.2608   51.5712 N.2     1  ZINC000676204775   -0.2400
     23 C23        -8.6211   -0.0265   51.8504 C.2     1  ZINC000676204775    0.0500
     24 C24       -10.9033   -0.0117   55.9620 C.ar    1  ZINC000676204775    0.0100
     25 C25       -10.4137   -0.4834   57.1471 C.ar    1  ZINC000676204775   -0.1500
     26 C26       -10.6016   -1.8193   57.4919 C.ar    1  ZINC000676204775    0.1700
     27 H27       -10.4698   -0.1765   59.7467 H       1  ZINC000676204775    0.0600
     28 H28       -11.2683   -1.4056   60.7566 H       1  ZINC000676204775    0.0700
     29 H29        -9.7570   -0.6448   61.3090 H       1  ZINC000676204775    0.0800
     30 H30        -8.5380   -1.6973   59.4236 H       1  ZINC000676204775    0.1000
     31 H31       -10.2325   -3.6626   61.0308 H       1  ZINC000676204775    0.0700
     32 H32        -8.6959   -4.0415   60.2163 H       1  ZINC000676204775    0.0600
     33 H33        -8.7211   -2.9018   61.5833 H       1  ZINC000676204775    0.0800
     34 H34       -11.7644   -4.8804   56.8343 H       1  ZINC000676204775    0.2000
     35 H35       -12.3095   -2.8116   54.7140 H       1  ZINC000676204775    0.1500
     36 H36       -11.0492   -0.7753   51.6614 H       1  ZINC000676204775    0.4200
     37 H37       -10.3810    2.0741   51.4279 H       1  ZINC000676204775    0.0800
     38 H38       -10.6179    2.4092   53.1588 H       1  ZINC000676204775    0.0800
     39 H39        -8.7798    3.7880   52.4454 H       1  ZINC000676204775    0.0700
     40 H40        -8.0704    2.4473   53.3752 H       1  ZINC000676204775    0.0700
     41 H41        -8.2041    2.7230   50.3380 H       1  ZINC000676204775    0.0700
     42 H42        -6.7436    2.7010   51.3606 H       1  ZINC000676204775    0.0700
     43 H43        -6.0714    0.3703   49.8342 H       1  ZINC000676204775    0.1800
     44 H44        -6.7875   -2.0394   50.3252 H       1  ZINC000676204775    0.4400
     45 H45       -10.7585    1.0262   55.7004 H       1  ZINC000676204775    0.1500
     46 H46        -9.8858    0.1794   57.8168 H       1  ZINC000676204775    0.1300
@<TRIPOS>BOND
     1     1     2    1
     2     1    27    1
     3     1    28    1
     4     1    29    1
     5     2     3    1
     6     2     4    1
     7     2    30    1
     8     3    31    1
     9     3    32    1
    10     3    33    1
    11     4    26    1
    12     4     5    1
    13     5     6    2
    14     6     7    1
    15     6    34    1
    16     7    26   ar
    17     7     8   ar
    18     8     9   ar
    19     8    35    1
    20     9    10    1
    21     9    24   ar
    22    10    11    2
    23    10    12    2
    24    10    13   am
    25    13    14    1
    26    13    36    1
    27    14    15    1
    28    14    23    1
    29    14    16    1
    30    16    17    1
    31    16    37    1
    32    16    38    1
    33    17    18    1
    34    17    39    1
    35    17    40    1
    36    18    19    1
    37    18    41    1
    38    18    42    1
    39    19    23    1
    40    19    20    2
    41    20    21    1
    42    20    43    1
    43    21    22    1
    44    21    44    1
    45    22    23    2
    46    24    25   ar
    47    24    45    1
    48    25    26   ar
    49    25    46    1
@<TRIPOS>SUBSTRUCTURE
     1 ZINC000676204775        1 TEMP              0 ****  ****    0 ROOT


##########                                Name:    ZINC000893400114
##########                DOCK_Rotatable_Bonds:                   6
##########                         Heavy_Atoms:                  27
##########                    Molecular_Weight:             381.472
##########                DOCK_Rotatable_Bonds:                   6
##########                       Formal_Charge:           0.0300001
##########                     HBond_Acceptors:                   8
##########                        HBond_Donors:                   1
##########                         Heavy_Atoms:                  27
##########                          Grid_Score:          -34.449360
##########                     Grid_vdw_energy:          -32.900940
##########                      Grid_es_energy:           -1.548420
##########           Internal_energy_repulsive:           82.855934

@<TRIPOS>MOLECULE
ZINC000893400114
 58 61 1 0 0
SMALL
USER_CHARGES


@<TRIPOS>ATOM
      1 O1        -12.7878   -1.2011   58.2607 O.2     1  ZINC000893400114   -0.5600
      2 C2        -11.8033   -1.1112   58.9686 C.2     1  ZINC000893400114    0.7100
      3 N3        -11.7254   -0.1340   59.8935 N.am    1  ZINC000893400114   -0.7300
      4 C4        -12.8243    0.8234   60.0421 C.3     1  ZINC000893400114    0.1400
      5 H5        -13.1595    1.1725   59.0654 H       1  ZINC000893400114    0.1200
      6 C6        -12.3870    2.0169   60.9225 C.3     1  ZINC000893400114   -0.1400
      7 C7        -12.8641    1.5677   62.3215 C.3     1  ZINC000893400114    0.1000
      8 N8        -13.9723    0.6371   62.0771 N.am    1  ZINC000893400114   -0.6200
      9 C9        -14.9542    0.2373   63.0882 C.3     1  ZINC000893400114    0.1600
     10 C10       -14.8941   -1.2800   63.2891 C.3     1  ZINC000893400114   -0.1700
     11 C11       -15.8668   -1.6786   64.4022 C.3     1  ZINC000893400114    0.0700
     12 O12       -15.5314   -0.9756   65.6002 O.3     1  ZINC000893400114   -0.3800
     13 C13       -15.6162    0.4464   65.4856 C.3     1  ZINC000893400114    0.0700
     14 C14       -14.6334    0.9302   64.4161 C.3     1  ZINC000893400114   -0.1700
     15 C15       -13.9722    0.1978   60.8033 C.2     1  ZINC000893400114    0.5100
     16 O16       -14.7744   -0.5839   60.3381 O.2     1  ZINC000893400114   -0.4900
     17 N17       -10.7922   -1.9919   58.8319 N.am    1  ZINC000893400114   -0.6300
     18 C18        -9.5934   -1.9066   59.6810 C.3     1  ZINC000893400114    0.0800
     19 C19        -9.3294   -3.2906   60.2850 C.3     1  ZINC000893400114    0.0500
     20 O20        -9.2977   -4.2630   59.2377 O.3     1  ZINC000893400114   -0.3800
     21 C21       -10.5293   -4.3948   58.5238 C.3     1  ZINC000893400114    0.0600
     22 C22       -10.8573   -3.0707   57.8334 C.3     1  ZINC000893400114    0.1400
     23 H23       -10.1300   -2.8780   57.0448 H       1  ZINC000893400114    0.0800
     24 C24       -12.2629   -3.1371   57.2330 C.3     1  ZINC000893400114   -0.1200
     25 C25       -12.3813   -4.3793   56.3476 C.3     1  ZINC000893400114    0.0700
     26 H26       -11.4072   -4.6266   55.9255 H       1  ZINC000893400114    0.0800
     27 C27       -13.3934   -4.1182   55.2114 C.3     1  ZINC000893400114   -0.1500
     28 C28       -14.1359   -5.4786   55.1124 C.3     1  ZINC000893400114   -0.1600
     29 C29       -14.1351   -5.9229   56.5968 C.3     1  ZINC000893400114    0.0500
     30 O30       -12.8701   -5.4819   57.1203 O.3     1  ZINC000893400114   -0.3800
     31 H31       -10.9417   -0.0647   60.4610 H       1  ZINC000893400114    0.4000
     32 H32       -11.3043    2.1414   60.9011 H       1  ZINC000893400114    0.1000
     33 H33       -12.8898    2.9336   60.6147 H       1  ZINC000893400114    0.1000
     34 H34       -12.0567    1.0619   62.8510 H       1  ZINC000893400114    0.0700
     35 H35       -13.2123    2.4267   62.8951 H       1  ZINC000893400114    0.0800
     36 H36       -15.9532    0.5237   62.7596 H       1  ZINC000893400114    0.0900
     37 H37       -15.1752   -1.7815   62.3630 H       1  ZINC000893400114    0.0800
     38 H38       -13.8815   -1.5706   63.5689 H       1  ZINC000893400114    0.0900
     39 H39       -16.8839   -1.4243   64.1042 H       1  ZINC000893400114    0.0500
     40 H40       -15.7970   -2.7519   64.5788 H       1  ZINC000893400114    0.1000
     41 H41       -16.6301    0.7283   65.2019 H       1  ZINC000893400114    0.0500
     42 H42       -15.3659    0.9037   66.4428 H       1  ZINC000893400114    0.1000
     43 H43       -13.6156    0.6842   64.7188 H       1  ZINC000893400114    0.0900
     44 H44       -14.7280    2.0094   64.2960 H       1  ZINC000893400114    0.0700
     45 H45        -8.7383   -1.5996   59.0790 H       1  ZINC000893400114    0.0800
     46 H46        -9.7597   -1.1833   60.4793 H       1  ZINC000893400114    0.0800
     47 H47        -8.3714   -3.2841   60.8050 H       1  ZINC000893400114    0.1100
     48 H48       -10.1245   -3.5387   60.9882 H       1  ZINC000893400114    0.0500
     49 H49       -10.4346   -5.1827   57.7767 H       1  ZINC000893400114    0.1300
     50 H50       -11.3288   -4.6469   59.2205 H       1  ZINC000893400114    0.0500
     51 H51       -12.9987   -3.1914   58.0353 H       1  ZINC000893400114    0.0800
     52 H52       -12.4444   -2.2450   56.6334 H       1  ZINC000893400114    0.1100
     53 H53       -14.0829   -3.3187   55.4823 H       1  ZINC000893400114    0.0800
     54 H54       -12.8785   -3.8885   54.2785 H       1  ZINC000893400114    0.0800
     55 H55       -15.1526   -5.3453   54.7428 H       1  ZINC000893400114    0.0800
     56 H56       -13.5833   -6.1835   54.4911 H       1  ZINC000893400114    0.0800
     57 H57       -14.9547   -5.4466   57.1347 H       1  ZINC000893400114    0.0600
     58 H58       -14.2153   -7.0077   56.6672 H       1  ZINC000893400114    0.0800
@<TRIPOS>BOND
     1     1     2    2
     2     2     3   am
     3     2    17   am
     4     3     4    1
     5     3    31    1
     6     4     5    1
     7     4    15    1
     8     4     6    1
     9     6     7    1
    10     6    32    1
    11     6    33    1
    12     7     8    1
    13     7    34    1
    14     7    35    1
    15     8     9    1
    16     8    15   am
    17     9    14    1
    18     9    10    1
    19     9    36    1
    20    10    11    1
    21    10    37    1
    22    10    38    1
    23    11    12    1
    24    11    39    1
    25    11    40    1
    26    12    13    1
    27    13    14    1
    28    13    41    1
    29    13    42    1
    30    14    43    1
    31    14    44    1
    32    15    16    2
    33    17    22    1
    34    17    18    1
    35    18    19    1
    36    18    45    1
    37    18    46    1
    38    19    20    1
    39    19    47    1
    40    19    48    1
    41    20    21    1
    42    21    22    1
    43    21    49    1
    44    21    50    1
    45    22    23    1
    46    22    24    1
    47    24    25    1
    48    24    51    1
    49    24    52    1
    50    25    26    1
    51    25    30    1
    52    25    27    1
    53    27    28    1
    54    27    53    1
    55    27    54    1
    56    28    29    1
    57    28    55    1
    58    28    56    1
    59    29    30    1
    60    29    57    1
    61    29    58    1
@<TRIPOS>SUBSTRUCTURE
     1 ZINC000893400114        1 TEMP              0 ****  ****    0 ROOT


##########                                Name:    ZINC000274267583
##########                DOCK_Rotatable_Bonds:                   5
##########                         Heavy_Atoms:                  24
##########                    Molecular_Weight:             349.407
##########                DOCK_Rotatable_Bonds:                   5
##########                       Formal_Charge:           0.0300001
##########                     HBond_Acceptors:                   7
##########                        HBond_Donors:                   1
##########                         Heavy_Atoms:                  24
##########                          Grid_Score:          -34.433643
##########                     Grid_vdw_energy:          -32.709686
##########                      Grid_es_energy:           -1.723956
##########           Internal_energy_repulsive:           13.169668

@<TRIPOS>MOLECULE
ZINC000274267583
 43 45 1 0 0
SMALL
USER_CHARGES


@<TRIPOS>ATOM
      1 C1        -10.2994    1.9314   65.1164 C.3     1  ZINC000274267583    0.0200
      2 O2         -9.6239    0.6865   64.9267 O.3     1  ZINC000274267583   -0.3100
      3 C3         -9.6790    0.1377   63.6846 C.ar    1  ZINC000274267583    0.1900
      4 C4         -9.1449   -1.1224   63.4574 C.ar    1  ZINC000274267583   -0.2300
      5 C5         -9.2027   -1.6782   62.1940 C.ar    1  ZINC000274267583    0.0300
      6 C6         -9.7916   -0.9796   61.1563 C.ar    1  ZINC000274267583   -0.7200
      7 S7         -9.8631   -1.6910   59.5460 S.o2    1  ZINC000274267583    2.7000
      8 O8         -9.2597   -0.7529   58.6656 O.2     1  ZINC000274267583   -0.9500
      9 O9         -9.4131   -3.0323   59.6795 O.2     1  ZINC000274267583   -0.9500
     10 N10       -11.4605   -1.7742   59.1172 N.am    1  ZINC000274267583   -1.1100
     11 C11       -12.3973   -2.5547   59.9294 C.3     1  ZINC000274267583    0.2100
     12 H12       -11.8393   -3.2283   60.5797 H       1  ZINC000274267583    0.1000
     13 C13       -13.2431   -1.6069   60.7831 C.3     1  ZINC000274267583   -0.1800
     14 C14       -14.3994   -2.4096   61.3929 C.3     1  ZINC000274267583    0.0600
     15 O15       -15.2408   -2.8642   60.3321 O.3     1  ZINC000274267583   -0.3100
     16 C16       -14.6509   -3.4783   59.2724 C.ar    1  ZINC000274267583    0.1100
     17 C17       -15.4450   -4.2413   58.4229 C.ar    1  ZINC000274267583   -0.1100
     18 C18       -14.8869   -4.8773   57.3329 C.ar    1  ZINC000274267583   -0.1600
     19 C19       -13.5284   -4.7556   57.0824 C.ar    1  ZINC000274267583    0.0900
     20 O20       -12.9753   -5.3786   56.0077 O.3     1  ZINC000274267583   -0.3200
     21 C21       -13.7205   -5.3532   54.7885 C.3     1  ZINC000274267583    0.0300
     22 C22       -12.7356   -3.9975   57.9292 C.ar    1  ZINC000274267583   -0.1000
     23 C23       -13.2950   -3.3601   59.0246 C.ar    1  ZINC000274267583   -0.1400
     24 C24       -10.3250    0.2762   61.3803 C.ar    1  ZINC000274267583    0.0200
     25 C25       -10.2745    0.8343   62.6430 C.ar    1  ZINC000274267583   -0.1700
     26 H26        -9.8766    2.6800   64.4464 H       1  ZINC000274267583    0.0600
     27 H27       -11.3600    1.8062   64.8983 H       1  ZINC000274267583    0.0600
     28 H28       -10.1770    2.2575   66.1492 H       1  ZINC000274267583    0.1100
     29 H29        -8.6842   -1.6681   64.2674 H       1  ZINC000274267583    0.1400
     30 H30        -8.7870   -2.6591   62.0167 H       1  ZINC000274267583    0.1400
     31 H31       -11.7759   -1.3062   58.3282 H       1  ZINC000274267583    0.4200
     32 H32       -12.6302   -1.1833   61.5787 H       1  ZINC000274267583    0.1000
     33 H33       -13.6406   -0.8064   60.1592 H       1  ZINC000274267583    0.0900
     34 H34       -14.0038   -3.2654   61.9400 H       1  ZINC000274267583    0.0700
     35 H35       -14.9715   -1.7738   62.0686 H       1  ZINC000274267583    0.1200
     36 H36       -16.5030   -4.3366   58.6174 H       1  ZINC000274267583    0.1400
     37 H37       -15.5070   -5.4694   56.6762 H       1  ZINC000274267583    0.1400
     38 H38       -14.6855   -5.8361   54.9424 H       1  ZINC000274267583    0.0600
     39 H39       -13.8766   -4.3196   54.4797 H       1  ZINC000274267583    0.0600
     40 H40       -13.1677   -5.8845   54.0138 H       1  ZINC000274267583    0.1000
     41 H41       -11.6777   -3.9029   57.7342 H       1  ZINC000274267583    0.1300
     42 H42       -10.7849    0.8199   60.5682 H       1  ZINC000274267583    0.1500
     43 H43       -10.6913    1.8152   62.8175 H       1  ZINC000274267583    0.1400
@<TRIPOS>BOND
     1     1     2    1
     2     1    26    1
     3     1    27    1
     4     1    28    1
     5     2     3    1
     6     3    25   ar
     7     3     4   ar
     8     4     5   ar
     9     4    29    1
    10     5     6   ar
    11     5    30    1
    12     6     7    1
    13     6    24   ar
    14     7     8    2
    15     7     9    2
    16     7    10   am
    17    10    11    1
    18    10    31    1
    19    11    12    1
    20    11    23    1
    21    11    13    1
    22    13    14    1
    23    13    32    1
    24    13    33    1
    25    14    15    1
    26    14    34    1
    27    14    35    1
    28    15    16    1
    29    16    23   ar
    30    16    17   ar
    31    17    18   ar
    32    17    36    1
    33    18    19   ar
    34    18    37    1
    35    19    20    1
    36    19    22   ar
    37    20    21    1
    38    21    38    1
    39    21    39    1
    40    21    40    1
    41    22    23   ar
    42    22    41    1
    43    24    25   ar
    44    24    42    1
    45    25    43    1
@<TRIPOS>SUBSTRUCTURE
     1 ZINC000274267583        1 TEMP              0 ****  ****    0 ROOT


##########                                Name:    ZINC000672622940
##########                DOCK_Rotatable_Bonds:                   7
##########                         Heavy_Atoms:                  30
##########                    Molecular_Weight:             416.523
##########                DOCK_Rotatable_Bonds:                   7
##########                       Formal_Charge:          -0.0100002
##########                     HBond_Acceptors:                   9
##########                        HBond_Donors:                   1
##########                         Heavy_Atoms:                  30
##########                          Grid_Score:          -34.426254
##########                     Grid_vdw_energy:          -33.959442
##########                      Grid_es_energy:           -0.466810
##########           Internal_energy_repulsive:           27.895067

@<TRIPOS>MOLECULE
ZINC000672622940
 62 65 1 0 0
SMALL
USER_CHARGES


@<TRIPOS>ATOM
      1 C1        -10.1909    0.0081   63.9111 C.3     1  ZINC000672622940    0.0800
      2 N2        -11.3361   -0.0493   62.9993 N.am    1  ZINC000672622940   -0.6200
      3 C3        -12.6617    0.3704   63.4609 C.3     1  ZINC000672622940    0.0700
      4 C4        -11.1702   -0.4881   61.7358 C.2     1  ZINC000672622940    0.5200
      5 O5        -10.0731   -0.8370   61.3542 O.2     1  ZINC000672622940   -0.5300
      6 C6        -12.3479   -0.5454   60.7973 C.3     1  ZINC000672622940   -0.1000
      7 H7        -13.1757   -1.0610   61.2841 H       1  ZINC000672622940    0.1000
      8 C8        -12.7776    0.8765   60.4308 C.3     1  ZINC000672622940   -0.1300
      9 C9        -13.9733    0.8183   59.4780 C.3     1  ZINC000672622940   -0.1100
     10 C10       -13.5773    0.0619   58.2083 C.3     1  ZINC000672622940   -0.1300
     11 C11       -13.1476   -1.3600   58.5749 C.3     1  ZINC000672622940    0.1400
     12 H12       -13.9754   -1.8756   59.0617 H       1  ZINC000672622940    0.1000
     13 N13       -12.7684   -2.0843   57.3591 N.am    1  ZINC000672622940   -0.6900
     14 C14       -13.7070   -2.7298   56.6389 C.2     1  ZINC000672622940    0.5100
     15 O15       -14.8665   -2.7098   56.9966 O.2     1  ZINC000672622940   -0.5100
     16 C16       -13.3200   -3.4701   55.3997 C.2     1  ZINC000672622940    0.5100
     17 O17       -13.3801   -4.6819   55.3731 O.2     1  ZINC000672622940   -0.5200
     18 N18       -12.9042   -2.7919   54.3117 N.am    1  ZINC000672622940   -0.5800
     19 C19       -12.8205   -1.3253   54.3306 C.3     1  ZINC000672622940    0.0700
     20 C20       -11.4106   -0.9063   53.9020 C.3     1  ZINC000672622940   -0.1200
     21 C21       -11.0855   -1.5370   52.5461 C.3     1  ZINC000672622940    0.0000
     22 C22        -9.7124   -1.0996   52.1052 C.2     1  ZINC000672622940    0.2000
     23 N23        -8.7664   -1.8700   51.6419 N.2     1  ZINC000672622940   -0.2800
     24 N24        -7.7295   -1.1626   51.3637 N.2     1  ZINC000672622940   -0.2800
     25 C25        -7.9684    0.0928   51.6366 C.2     1  ZINC000672622940    0.1500
     26 C26        -7.3453    1.4716   51.6055 C.3     1  ZINC000672622940   -0.0400
     27 C27        -8.5466    2.4357   51.7346 C.3     1  ZINC000672622940   -0.1300
     28 C28        -9.5861    1.5506   52.4564 C.3     1  ZINC000672622940    0.1000
     29 N29        -9.2321    0.1685   52.1105 N.pl3   1  ZINC000672622940   -0.4900
     30 C30       -11.1197   -3.0621   52.6695 C.3     1  ZINC000672622940   -0.1200
     31 C31       -12.5204   -3.5057   53.0862 C.3     1  ZINC000672622940    0.1100
     32 C32       -11.9519   -1.3019   59.5277 C.3     1  ZINC000672622940   -0.1100
     33 H33       -10.1038   -0.9382   64.4451 H       1  ZINC000672622940    0.0600
     34 H34        -9.2802    0.1881   63.3398 H       1  ZINC000672622940    0.0800
     35 H35       -10.3366    0.8171   64.6269 H       1  ZINC000672622940    0.0700
     36 H36       -12.7934    1.4350   63.2676 H       1  ZINC000672622940    0.0600
     37 H37       -13.4272   -0.1932   62.9277 H       1  ZINC000672622940    0.0800
     38 H38       -12.7504    0.1817   64.5307 H       1  ZINC000672622940    0.0700
     39 H39       -13.0597    1.4153   61.3353 H       1  ZINC000672622940    0.0800
     40 H40       -11.9497    1.3921   59.9439 H       1  ZINC000672622940    0.0700
     41 H41       -14.8010    0.3027   59.9647 H       1  ZINC000672622940    0.0700
     42 H42       -14.2793    1.8313   59.2168 H       1  ZINC000672622940    0.0700
     43 H43       -14.4291    0.0204   57.5295 H       1  ZINC000672622940    0.0700
     44 H44       -12.7494    0.5775   57.7215 H       1  ZINC000672622940    0.0700
     45 H45       -11.8419   -2.0993   57.0726 H       1  ZINC000672622940    0.4100
     46 H46       -13.5518   -0.9085   53.6382 H       1  ZINC000672622940    0.0700
     47 H47       -13.0193   -0.9609   55.3385 H       1  ZINC000672622940    0.1400
     48 H48       -11.3631    0.1794   53.8190 H       1  ZINC000672622940    0.0800
     49 H49       -10.6885   -1.2469   54.6441 H       1  ZINC000672622940    0.0800
     50 H50       -11.8226   -1.2159   51.8101 H       1  ZINC000672622940    0.0900
     51 H51        -6.6615    1.6001   52.4446 H       1  ZINC000672622940    0.1000
     52 H52        -6.8259    1.6339   50.6610 H       1  ZINC000672622940    0.1000
     53 H53        -8.2865    3.3041   52.3398 H       1  ZINC000672622940    0.1100
     54 H54        -8.9090    2.7408   50.7528 H       1  ZINC000672622940    0.0900
     55 H55        -9.5255    1.7011   53.5343 H       1  ZINC000672622940    0.1000
     56 H56       -10.5898    1.7803   52.0989 H       1  ZINC000672622940    0.1000
     57 H57       -10.8651   -3.5107   51.7093 H       1  ZINC000672622940    0.0800
     58 H58       -10.4003   -3.3822   53.4233 H       1  ZINC000672622940    0.0800
     59 H59       -12.5235   -4.5800   53.2712 H       1  ZINC000672622940    0.1000
     60 H60       -13.2300   -3.2673   52.2940 H       1  ZINC000672622940    0.0800
     61 H61       -11.1240   -0.7863   59.0409 H       1  ZINC000672622940    0.0800
     62 H62       -11.6458   -2.3149   59.7888 H       1  ZINC000672622940    0.0800
@<TRIPOS>BOND
     1     1     2    1
     2     1    33    1
     3     1    34    1
     4     1    35    1
     5     2     3    1
     6     2     4   am
     7     3    36    1
     8     3    37    1
     9     3    38    1
    10     4     5    2
    11     4     6    1
    12     6     7    1
    13     6    32    1
    14     6     8    1
    15     8     9    1
    16     8    39    1
    17     8    40    1
    18     9    10    1
    19     9    41    1
    20     9    42    1
    21    10    11    1
    22    10    43    1
    23    10    44    1
    24    11    12    1
    25    11    13    1
    26    11    32    1
    27    13    14   am
    28    13    45    1
    29    14    15    2
    30    14    16    1
    31    16    17    2
    32    16    18   am
    33    18    31    1
    34    18    19    1
    35    19    20    1
    36    19    46    1
    37    19    47    1
    38    20    21    1
    39    20    48    1
    40    20    49    1
    41    21    22    1
    42    21    30    1
    43    21    50    1
    44    22    29    1
    45    22    23    2
    46    23    24    1
    47    24    25    2
    48    25    29    1
    49    25    26    1
    50    26    27    1
    51    26    51    1
    52    26    52    1
    53    27    28    1
    54    27    53    1
    55    27    54    1
    56    28    29    1
    57    28    55    1
    58    28    56    1
    59    30    31    1
    60    30    57    1
    61    30    58    1
    62    31    59    1
    63    31    60    1
    64    32    61    1
    65    32    62    1
@<TRIPOS>SUBSTRUCTURE
     1 ZINC000672622940        1 TEMP              0 ****  ****    0 ROOT


##########                                Name:    ZINC001015666108
##########                DOCK_Rotatable_Bonds:                   7
##########                         Heavy_Atoms:                  25
##########                    Molecular_Weight:             346.429
##########                DOCK_Rotatable_Bonds:                   7
##########                       Formal_Charge:          -0.0199997
##########                     HBond_Acceptors:                   7
##########                        HBond_Donors:                   1
##########                         Heavy_Atoms:                  25
##########                          Grid_Score:          -34.420456
##########                     Grid_vdw_energy:          -34.122467
##########                      Grid_es_energy:           -0.297987
##########           Internal_energy_repulsive:           15.365347

@<TRIPOS>MOLECULE
ZINC001015666108
 51 53 1 0 0
SMALL
USER_CHARGES


@<TRIPOS>ATOM
      1 C1        -15.7260    1.0062   48.0466 C.3     1  ZINC001015666108   -0.1400
      2 C2        -14.5601    0.2685   48.7082 C.3     1  ZINC001015666108   -0.0700
      3 C3        -14.2519    0.9066   50.0381 C.2     1  ZINC001015666108   -0.0700
      4 C4        -13.6954    0.2963   51.1255 C.2     1  ZINC001015666108   -0.0900
      5 C5        -13.2876   -1.1100   51.2096 C.2     1  ZINC001015666108    0.6100
      6 O6        -13.4313   -1.8437   50.2493 O.2     1  ZINC001015666108   -0.5100
      7 N7        -12.7537   -1.5897   52.3503 N.am    1  ZINC001015666108   -0.7200
      8 C8        -12.3480   -2.9949   52.4349 C.3     1  ZINC001015666108    0.1400
      9 H9        -12.3247   -3.4418   51.4410 H       1  ZINC001015666108    0.1100
     10 C10       -10.9619   -3.1134   53.1092 C.3     1  ZINC001015666108   -0.1300
     11 C11       -11.3194   -3.4321   54.5826 C.3     1  ZINC001015666108    0.0300
     12 N12       -12.4999   -4.3252   54.4604 N.3     1  ZINC001015666108   -0.5100
     13 C13       -13.2704   -4.3534   55.7107 C.3     1  ZINC001015666108    0.1700
     14 H14       -13.8954   -3.4626   55.7725 H       1  ZINC001015666108    0.0900
     15 C15       -14.1563   -5.6006   55.7359 C.3     1  ZINC001015666108   -0.1500
     16 C16       -12.3242   -4.3855   56.8833 C.2     1  ZINC001015666108    0.1900
     17 N17       -12.1612   -3.4440   57.7812 N.2     1  ZINC001015666108   -0.4800
     18 C18       -11.2232   -3.9079   58.6261 C.2     1  ZINC001015666108    0.1800
     19 C19       -10.6815   -3.1931   59.8370 C.3     1  ZINC001015666108    0.0000
     20 C20        -9.3007   -2.6182   59.5148 C.3     1  ZINC001015666108   -0.1500
     21 C21       -11.6293   -2.0565   60.2248 C.3     1  ZINC001015666108   -0.1500
     22 N22       -10.8702   -5.0861   58.2066 N.2     1  ZINC001015666108   -0.3800
     23 O23       -11.4951   -5.3815   57.2098 O.3     1  ZINC001015666108    0.1000
     24 C24       -13.3106   -3.7749   53.3494 C.3     1  ZINC001015666108    0.0300
     25 O25       -13.5864    1.2135   52.1088 O.3     1  ZINC001015666108   -0.1700
     26 C26       -14.0588    2.3890   51.6746 C.2     1  ZINC001015666108    0.0000
     27 C27       -14.4756    2.2449   50.3973 C.2     1  ZINC001015666108   -0.2200
     28 H28       -15.9489    0.5448   47.0846 H       1  ZINC001015666108    0.0600
     29 H29       -16.6041    0.9485   48.6896 H       1  ZINC001015666108    0.0600
     30 H30       -15.4553    2.0510   47.8943 H       1  ZINC001015666108    0.0500
     31 H31       -14.8308   -0.7763   48.8604 H       1  ZINC001015666108    0.0900
     32 H32       -13.6819    0.3264   48.0651 H       1  ZINC001015666108    0.0700
     33 H33       -12.6381   -1.0046   53.1153 H       1  ZINC001015666108    0.4000
     34 H34       -10.3863   -3.9269   52.6673 H       1  ZINC001015666108    0.0900
     35 H35       -10.4172   -2.1718   53.0393 H       1  ZINC001015666108    0.0800
     36 H36       -10.4956   -3.9487   55.0752 H       1  ZINC001015666108    0.0800
     37 H37       -11.5803   -2.5210   55.1209 H       1  ZINC001015666108    0.0500
     38 H38       -13.5312   -6.4915   55.6741 H       1  ZINC001015666108    0.0800
     39 H39       -14.7280   -5.6216   56.6637 H       1  ZINC001015666108    0.0700
     40 H40       -14.8407   -5.5774   54.8879 H       1  ZINC001015666108    0.0800
     41 H41       -10.5980   -3.8955   60.6664 H       1  ZINC001015666108    0.1000
     42 H42        -9.3841   -1.9160   58.6853 H       1  ZINC001015666108    0.0600
     43 H43        -8.9089   -2.1012   60.3906 H       1  ZINC001015666108    0.0700
     44 H44        -8.6254   -3.4280   59.2385 H       1  ZINC001015666108    0.0600
     45 H45       -11.7129   -1.3541   59.3954 H       1  ZINC001015666108    0.0600
     46 H46       -12.6130   -2.4660   60.4545 H       1  ZINC001015666108    0.0600
     47 H47       -11.2375   -1.5394   61.1007 H       1  ZINC001015666108    0.0700
     48 H48       -14.0737   -3.1039   53.7436 H       1  ZINC001015666108    0.0600
     49 H49       -13.7781   -4.5874   52.7931 H       1  ZINC001015666108    0.1000
     50 H50       -14.0964    3.3028   52.2492 H       1  ZINC001015666108    0.2100
     51 H51       -14.9061    3.0135   49.7723 H       1  ZINC001015666108    0.1600
@<TRIPOS>BOND
     1     1     2    1
     2     1    28    1
     3     1    29    1
     4     1    30    1
     5     2     3    1
     6     2    31    1
     7     2    32    1
     8     3    27    1
     9     3     4    2
    10     4     5    1
    11     4    25    1
    12     5     6    2
    13     5     7   am
    14     7     8    1
    15     7    33    1
    16     8     9    1
    17     8    24    1
    18     8    10    1
    19    10    11    1
    20    10    34    1
    21    10    35    1
    22    11    12    1
    23    11    36    1
    24    11    37    1
    25    12    13    1
    26    12    24    1
    27    13    14    1
    28    13    15    1
    29    13    16    1
    30    15    38    1
    31    15    39    1
    32    15    40    1
    33    16    23    1
    34    16    17    2
    35    17    18    1
    36    18    19    1
    37    18    22    2
    38    19    20    1
    39    19    21    1
    40    19    41    1
    41    20    42    1
    42    20    43    1
    43    20    44    1
    44    21    45    1
    45    21    46    1
    46    21    47    1
    47    22    23    1
    48    24    48    1
    49    24    49    1
    50    25    26    1
    51    26    27    2
    52    26    50    1
    53    27    51    1
@<TRIPOS>SUBSTRUCTURE
     1 ZINC001015666108        1 TEMP              0 ****  ****    0 ROOT


##########                                Name:    ZINC000892249927
##########                DOCK_Rotatable_Bonds:                   8
##########                         Heavy_Atoms:                  27
##########                    Molecular_Weight:             364.487
##########                DOCK_Rotatable_Bonds:                   8
##########                       Formal_Charge:          -0.0300015
##########                     HBond_Acceptors:                   4
##########                        HBond_Donors:                   1
##########                         Heavy_Atoms:                  27
##########                          Grid_Score:          -34.411301
##########                     Grid_vdw_energy:          -34.472233
##########                      Grid_es_energy:            0.060934
##########           Internal_energy_repulsive:           13.264586

@<TRIPOS>MOLECULE
ZINC000892249927
 55 58 1 0 0
SMALL
USER_CHARGES


@<TRIPOS>ATOM
      1 O1         -2.5250    1.9284   50.5477 O.2     1  ZINC000892249927   -0.5300
      2 C2         -3.2711    1.5651   49.6632 C.2     1  ZINC000892249927    0.5100
      3 C3         -4.7044    1.2235   49.9795 C.3     1  ZINC000892249927   -0.1400
      4 C4         -5.1628    2.0257   51.1991 C.3     1  ZINC000892249927   -0.1000
      5 C5         -6.6689    1.8407   51.3945 C.3     1  ZINC000892249927   -0.0800
      6 C6         -7.0695    2.3751   52.7455 C.ar    1  ZINC000892249927   -0.0900
      7 C7         -6.4143    3.4697   53.2779 C.ar    1  ZINC000892249927   -0.1100
      8 C8         -6.7818    3.9598   54.5171 C.ar    1  ZINC000892249927   -0.1100
      9 C9         -7.8048    3.3556   55.2238 C.ar    1  ZINC000892249927   -0.0500
     10 C10        -8.2050    3.8897   56.5750 C.3     1  ZINC000892249927   -0.1200
     11 C11        -8.8264    2.9053   57.5678 C.3     1  ZINC000892249927   -0.1800
     12 C12        -7.4012    3.4168   57.7878 C.3     1  ZINC000892249927   -0.1700
     13 C13        -8.4609    2.2619   54.6908 C.ar    1  ZINC000892249927   -0.1200
     14 C14        -8.0959    1.7741   53.4499 C.ar    1  ZINC000892249927   -0.1100
     15 N15        -2.8201    1.4723   48.3966 N.am    1  ZINC000892249927   -0.7300
     16 C16        -1.4267    1.8044   48.0891 C.3     1  ZINC000892249927    0.1400
     17 H17        -0.7873    1.4966   48.9166 H       1  ZINC000892249927    0.1000
     18 C18        -1.2954    3.3153   47.8746 C.3     1  ZINC000892249927   -0.1700
     19 C19        -2.1368    3.7258   46.6633 C.3     1  ZINC000892249927    0.0600
     20 O20        -1.7063    2.9921   45.5151 O.3     1  ZINC000892249927   -0.3700
     21 C21        -1.8503    1.5758   45.6400 C.3     1  ZINC000892249927    0.1400
     22 H22        -2.8966    1.3316   45.8234 H       1  ZINC000892249927    0.0700
     23 C23        -1.3944    0.9101   44.3672 C.ar    1  ZINC000892249927   -0.1400
     24 C24        -0.2513    1.3479   43.7166 C.ar    1  ZINC000892249927   -0.0700
     25 C25         0.1307    0.7051   42.5487 C.ar    1  ZINC000892249927   -0.1700
     26 C26        -0.6354   -0.3431   42.0756 C.ar    1  ZINC000892249927    0.1000
     27 N27        -1.7175   -0.7330   42.7211 N.ar    1  ZINC000892249927   -0.4900
     28 C28        -2.1075   -0.1487   43.8369 C.ar    1  ZINC000892249927    0.1300
     29 C29        -0.9966    1.0771   46.8114 C.3     1  ZINC000892249927   -0.1500
     30 H30        -5.3341    1.4706   49.1246 H       1  ZINC000892249927    0.0900
     31 H31        -4.7852    0.1579   50.1943 H       1  ZINC000892249927    0.0900
     32 H32        -4.6352    1.6727   52.0853 H       1  ZINC000892249927    0.0700
     33 H33        -4.9436    3.0819   51.0425 H       1  ZINC000892249927    0.0700
     34 H34        -7.2056    2.3825   50.6159 H       1  ZINC000892249927    0.0700
     35 H35        -6.9154    0.7806   51.3356 H       1  ZINC000892249927    0.0700
     36 H36        -5.6151    3.9418   52.7258 H       1  ZINC000892249927    0.1200
     37 H37        -6.2694    4.8147   54.9334 H       1  ZINC000892249927    0.1200
     38 H38        -8.5743    4.9152   56.5845 H       1  ZINC000892249927    0.1100
     39 H39        -9.6046    3.2831   58.2309 H       1  ZINC000892249927    0.1000
     40 H40        -8.9456    1.8714   57.2438 H       1  ZINC000892249927    0.1000
     41 H41        -6.5830    2.7194   57.6085 H       1  ZINC000892249927    0.1000
     42 H42        -7.2420    4.1310   58.5956 H       1  ZINC000892249927    0.1000
     43 H43        -9.2603    1.7900   55.2427 H       1  ZINC000892249927    0.1200
     44 H44        -8.6086    0.9195   53.0335 H       1  ZINC000892249927    0.1200
     45 H45        -3.4179    1.1855   47.6886 H       1  ZINC000892249927    0.4000
     46 H46        -1.6513    3.8413   48.7604 H       1  ZINC000892249927    0.0800
     47 H47        -0.2505    3.5683   47.6947 H       1  ZINC000892249927    0.0800
     48 H48        -3.1869    3.5097   46.8600 H       1  ZINC000892249927    0.0500
     49 H49        -2.0133    4.7932   46.4799 H       1  ZINC000892249927    0.1000
     50 H50         0.3279    2.1704   44.1097 H       1  ZINC000892249927    0.1300
     51 H51         1.0155    1.0200   42.0155 H       1  ZINC000892249927    0.1400
     52 H52        -0.3450   -0.8487   41.1665 H       1  ZINC000892249927    0.1600
     53 H53        -2.9993   -0.4957   44.3376 H       1  ZINC000892249927    0.1600
     54 H54         0.0545    1.2845   46.6104 H       1  ZINC000892249927    0.0900
     55 H55        -1.1398    0.0037   46.9354 H       1  ZINC000892249927    0.0800
@<TRIPOS>BOND
     1     1     2    2
     2     2     3    1
     3     2    15   am
     4     3     4    1
     5     3    30    1
     6     3    31    1
     7     4     5    1
     8     4    32    1
     9     4    33    1
    10     5     6    1
    11     5    34    1
    12     5    35    1
    13     6    14   ar
    14     6     7   ar
    15     7     8   ar
    16     7    36    1
    17     8     9   ar
    18     8    37    1
    19     9    10    1
    20     9    13   ar
    21    10    12    1
    22    10    11    1
    23    10    38    1
    24    11    12    1
    25    11    39    1
    26    11    40    1
    27    12    41    1
    28    12    42    1
    29    13    14   ar
    30    13    43    1
    31    14    44    1
    32    15    16    1
    33    15    45    1
    34    16    17    1
    35    16    29    1
    36    16    18    1
    37    18    19    1
    38    18    46    1
    39    18    47    1
    40    19    20    1
    41    19    48    1
    42    19    49    1
    43    20    21    1
    44    21    22    1
    45    21    23    1
    46    21    29    1
    47    23    28   ar
    48    23    24   ar
    49    24    25   ar
    50    24    50    1
    51    25    26   ar
    52    25    51    1
    53    26    27   ar
    54    26    52    1
    55    27    28   ar
    56    28    53    1
    57    29    54    1
    58    29    55    1
@<TRIPOS>SUBSTRUCTURE
     1 ZINC000892249927        1 TEMP              0 ****  ****    0 ROOT


##########                                Name:    ZINC000991934963
##########                DOCK_Rotatable_Bonds:                   8
##########                         Heavy_Atoms:                  27
##########                    Molecular_Weight:             370.495
##########                DOCK_Rotatable_Bonds:                   8
##########                       Formal_Charge:          -0.0499997
##########                     HBond_Acceptors:                   6
##########                        HBond_Donors:                   1
##########                         Heavy_Atoms:                  27
##########                          Grid_Score:          -34.386448
##########                     Grid_vdw_energy:          -34.195259
##########                      Grid_es_energy:           -0.191187
##########           Internal_energy_repulsive:           14.248853

@<TRIPOS>MOLECULE
ZINC000991934963
 57 61 1 0 0
SMALL
USER_CHARGES


@<TRIPOS>ATOM
      1 C1         -9.4411   -2.0667   60.9497 C.3     1  ZINC000991934963    0.0400
      2 O2         -9.1367   -3.3176   60.3295 O.3     1  ZINC000991934963   -0.2900
      3 C3         -9.9571   -3.7250   59.3316 C.ar    1  ZINC000991934963    0.5000
      4 N4         -9.9435   -4.9957   58.9632 N.ar    1  ZINC000991934963   -0.5700
      5 C5        -10.7319   -5.4272   57.9922 C.ar    1  ZINC000991934963    0.1900
      6 C6        -11.5780   -4.5301   57.3600 C.ar    1  ZINC000991934963   -0.2700
      7 C7        -11.5661   -3.2065   57.7715 C.ar    1  ZINC000991934963    0.2200
      8 C8        -12.4686   -2.1949   57.1135 C.3     1  ZINC000991934963    0.1000
      9 N9        -11.7610   -1.5642   55.9912 N.3     1  ZINC000991934963   -0.4900
     10 C10       -12.0537   -0.0971   55.9289 C.3     1  ZINC000991934963    0.0400
     11 C11       -12.5271    0.1993   54.4713 C.3     1  ZINC000991934963   -0.1400
     12 C12       -11.8877   -0.9589   53.7082 C.3     1  ZINC000991934963    0.1700
     13 N13       -10.4536   -0.7568   53.4878 N.am    1  ZINC000991934963   -0.7000
     14 C14       -10.0288    0.2407   52.6871 C.2     1  ZINC000991934963    0.5200
     15 O15       -10.8339    0.9700   52.1478 O.2     1  ZINC000991934963   -0.5300
     16 C16        -8.5535    0.4497   52.4618 C.3     1  ZINC000991934963   -0.1100
     17 C17        -8.2292    1.9419   52.5575 C.3     1  ZINC000991934963   -0.1300
     18 H18        -8.3529    2.3874   53.5447 H       1  ZINC000991934963    0.1200
     19 C19        -8.5526    2.8145   51.3431 C.3     1  ZINC000991934963   -0.1700
     20 C20        -7.0976    2.4769   51.6777 C.3     1  ZINC000991934963   -0.1200
     21 H21        -6.5843    1.7659   51.0304 H       1  ZINC000991934963    0.1000
     22 C22        -6.2261    3.5968   52.2500 C.3     1  ZINC000991934963   -0.1200
     23 C23        -5.8679    3.5239   53.7356 C.3     1  ZINC000991934963   -0.1800
     24 C24        -4.8020    3.2355   52.6767 C.3     1  ZINC000991934963   -0.1800
     25 C25       -12.5957   -1.5434   52.4906 C.3     1  ZINC000991934963   -0.1200
     26 C26       -12.1550   -3.0398   52.5327 C.3     1  ZINC000991934963   -0.1200
     27 C27       -11.8187   -3.3438   54.0242 C.3     1  ZINC000991934963   -0.1000
     28 C28       -12.2011   -2.0966   54.7468 C.3     1  ZINC000991934963    0.0500
     29 H29       -13.2900   -2.1011   54.7980 H       1  ZINC000991934963    0.0400
     30 N30       -10.7564   -2.8435   58.7526 N.ar    1  ZINC000991934963   -0.5000
     31 H31       -10.4373   -2.1122   61.3898 H       1  ZINC000991934963    0.0600
     32 H32        -8.7084   -1.8601   61.7299 H       1  ZINC000991934963    0.1100
     33 H33        -9.4098   -1.2736   60.2026 H       1  ZINC000991934963    0.0600
     34 H34       -10.7160   -6.4656   57.6957 H       1  ZINC000991934963    0.1700
     35 H35       -12.2318   -4.8549   56.5641 H       1  ZINC000991934963    0.1500
     36 H36       -13.3647   -2.6936   56.7438 H       1  ZINC000991934963    0.1000
     37 H37       -12.7505   -1.4326   57.8397 H       1  ZINC000991934963    0.0600
     38 H38       -12.8424    0.1570   56.6370 H       1  ZINC000991934963    0.0600
     39 H39       -11.1522    0.4736   56.1525 H       1  ZINC000991934963    0.0800
     40 H40       -13.6140    0.1644   54.3977 H       1  ZINC000991934963    0.0800
     41 H41       -12.1431    1.1579   54.1220 H       1  ZINC000991934963    0.0900
     42 H42        -9.8096   -1.3408   53.9181 H       1  ZINC000991934963    0.4000
     43 H43        -7.9896   -0.0939   53.2198 H       1  ZINC000991934963    0.1000
     44 H44        -8.2812    0.0815   51.4727 H       1  ZINC000991934963    0.0900
     45 H45        -8.9964    2.3255   50.4760 H       1  ZINC000991934963    0.0900
     46 H46        -8.8887    3.8342   51.5313 H       1  ZINC000991934963    0.1000
     47 H47        -6.3870    4.5847   51.8185 H       1  ZINC000991934963    0.1000
     48 H48        -5.7931    4.4642   54.2820 H       1  ZINC000991934963    0.0900
     49 H49        -6.2531    2.6783   54.3054 H       1  ZINC000991934963    0.0900
     50 H50        -4.4858    2.2002   52.5497 H       1  ZINC000991934963    0.0900
     51 H51        -4.0259    3.9860   52.5263 H       1  ZINC000991934963    0.0900
     52 H52       -13.6773   -1.4551   52.5920 H       1  ZINC000991934963    0.0800
     53 H53       -12.2509   -1.0636   51.5746 H       1  ZINC000991934963    0.0800
     54 H54       -12.9684   -3.6808   52.1927 H       1  ZINC000991934963    0.0700
     55 H55       -11.2727   -3.1894   51.9105 H       1  ZINC000991934963    0.0700
     56 H56       -12.4068   -4.1883   54.3833 H       1  ZINC000991934963    0.0700
     57 H57       -10.7534   -3.5418   54.1423 H       1  ZINC000991934963    0.0700
@<TRIPOS>BOND
     1     1     2    1
     2     1    31    1
     3     1    32    1
     4     1    33    1
     5     2     3    1
     6     3    30   ar
     7     3     4   ar
     8     4     5   ar
     9     5     6   ar
    10     5    34    1
    11     6     7   ar
    12     6    35    1
    13     7     8    1
    14     7    30   ar
    15     8     9    1
    16     8    36    1
    17     8    37    1
    18     9    28    1
    19     9    10    1
    20    10    11    1
    21    10    38    1
    22    10    39    1
    23    11    12    1
    24    11    40    1
    25    11    41    1
    26    12    28    1
    27    12    13    1
    28    12    25    1
    29    13    14   am
    30    13    42    1
    31    14    15    2
    32    14    16    1
    33    16    17    1
    34    16    43    1
    35    16    44    1
    36    17    18    1
    37    17    20    1
    38    17    19    1
    39    19    20    1
    40    19    45    1
    41    19    46    1
    42    20    21    1
    43    20    22    1
    44    22    24    1
    45    22    23    1
    46    22    47    1
    47    23    24    1
    48    23    48    1
    49    23    49    1
    50    24    50    1
    51    24    51    1
    52    25    26    1
    53    25    52    1
    54    25    53    1
    55    26    27    1
    56    26    54    1
    57    26    55    1
    58    27    28    1
    59    27    56    1
    60    27    57    1
    61    28    29    1
@<TRIPOS>SUBSTRUCTURE
     1 ZINC000991934963        1 TEMP              0 ****  ****    0 ROOT


##########                                Name:    ZINC000442864105
##########                DOCK_Rotatable_Bonds:                   7
##########                         Heavy_Atoms:                  30
##########                    Molecular_Weight:              414.39
##########                DOCK_Rotatable_Bonds:                   7
##########                       Formal_Charge:           0.0200001
##########                     HBond_Acceptors:                  10
##########                        HBond_Donors:                   2
##########                         Heavy_Atoms:                  30
##########                          Grid_Score:          -34.344112
##########                     Grid_vdw_energy:          -31.018959
##########                      Grid_es_energy:           -3.325155
##########           Internal_energy_repulsive:           15.255184

@<TRIPOS>MOLECULE
ZINC000442864105
 47 50 1 0 0
SMALL
USER_CHARGES


@<TRIPOS>ATOM
      1 C1        -15.7572   -3.5423   58.3628 C.3     1  ZINC000442864105    0.0800
      2 N2        -14.5406   -4.2153   57.9008 N.pl3   1  ZINC000442864105   -0.4900
      3 C3        -14.5080   -5.2717   57.0291 C.2     1  ZINC000442864105    0.0300
      4 C4        -13.2382   -5.6494   56.8157 C.2     1  ZINC000442864105   -0.1900
      5 C5        -12.3871   -4.7637   57.6154 C.ar    1  ZINC000442864105   -0.1600
      6 C6        -11.0081   -4.6605   57.8084 C.ar    1  ZINC000442864105   -0.0200
      7 C7        -10.5079   -3.7011   58.6416 C.ar    1  ZINC000442864105   -0.2100
      8 C8        -11.3649   -2.8222   59.3022 C.ar    1  ZINC000442864105    0.2400
      9 N9        -10.8369   -1.8456   60.1518 N.pl3   1  ZINC000442864105   -0.7400
     10 C10       -10.4999   -0.5209   59.6249 C.3     1  ZINC000442864105    0.1100
     11 C11       -10.1347   -0.6380   58.1675 C.2     1  ZINC000442864105    0.5100
     12 O12        -9.1451   -1.2572   57.8381 O.2     1  ZINC000442864105   -0.5100
     13 N13       -10.9076   -0.0546   57.2300 N.am    1  ZINC000442864105   -0.6600
     14 C14       -10.5683   -0.1633   55.8764 C.ar    1  ZINC000442864105    0.1600
     15 C15       -11.1247   -1.1679   55.0984 C.ar    1  ZINC000442864105   -0.0700
     16 C16       -10.7883   -1.2733   53.7621 C.ar    1  ZINC000442864105   -0.1600
     17 C17       -11.3940   -2.3654   52.9187 C.3     1  ZINC000442864105    0.5100
     18 F18       -10.5161   -3.4532   52.8634 F       1  ZINC000442864105   -0.1700
     19 F19       -12.6068   -2.7732   53.4845 F       1  ZINC000442864105   -0.1700
     20 F20       -11.6216   -1.8836   51.6251 F       1  ZINC000442864105   -0.1700
     21 C21        -9.8977   -0.3792   53.1964 C.ar    1  ZINC000442864105   -0.0600
     22 C22        -9.3381    0.6245   53.9643 C.ar    1  ZINC000442864105   -0.1100
     23 C23        -9.6743    0.7415   55.3045 C.ar    1  ZINC000442864105    0.1500
     24 N24        -9.1077    1.7592   56.0856 N.pl3   1  ZINC000442864105   -0.3300
     25 C25        -7.8849    2.3046   55.9381 C.2     1  ZINC000442864105    0.2800
     26 N26        -7.7352    3.2199   56.8614 N.2     1  ZINC000442864105   -0.5300
     27 C27        -8.8335    3.2882   57.6127 C.2     1  ZINC000442864105    0.2300
     28 N28        -9.7045    2.4173   57.1734 N.2     1  ZINC000442864105   -0.3400
     29 C29       -12.7347   -2.9087   59.1228 C.ar    1  ZINC000442864105   -0.2100
     30 C30       -13.2589   -3.8768   58.2736 C.ar    1  ZINC000442864105    0.1500
     31 H31       -16.0001   -2.7248   57.6841 H       1  ZINC000442864105    0.0700
     32 H32       -16.5815   -4.2551   58.3826 H       1  ZINC000442864105    0.0800
     33 H33       -15.5950   -3.1463   59.3653 H       1  ZINC000442864105    0.0800
     34 H34       -15.3756   -5.7321   56.5801 H       1  ZINC000442864105    0.1700
     35 H35       -12.9063   -6.4540   56.1762 H       1  ZINC000442864105    0.1400
     36 H36       -10.3383   -5.3385   57.3002 H       1  ZINC000442864105    0.1200
     37 H37        -9.4410   -3.6230   58.7902 H       1  ZINC000442864105    0.1200
     38 H38       -10.6937   -2.0452   61.0902 H       1  ZINC000442864105    0.4100
     39 H39       -11.3585    0.1419   59.7321 H       1  ZINC000442864105    0.1000
     40 H40        -9.6547   -0.1134   60.1796 H       1  ZINC000442864105    0.1000
     41 H41       -11.6989    0.4406   57.4935 H       1  ZINC000442864105    0.4300
     42 H42       -11.8205   -1.8678   55.5369 H       1  ZINC000442864105    0.1700
     43 H43        -9.6384   -0.4658   52.1516 H       1  ZINC000442864105    0.1500
     44 H44        -8.6427    1.3208   53.5194 H       1  ZINC000442864105    0.1500
     45 H45        -7.1553    2.0333   55.1894 H       1  ZINC000442864105    0.2300
     46 H46        -8.9822    3.9577   58.4470 H       1  ZINC000442864105    0.2300
     47 H47       -13.3933   -2.2248   59.6374 H       1  ZINC000442864105    0.1200
@<TRIPOS>BOND
     1     1     2    1
     2     1    31    1
     3     1    32    1
     4     1    33    1
     5     2    30    1
     6     2     3    1
     7     3     4    2
     8     3    34    1
     9     4     5    1
    10     4    35    1
    11     5    30   ar
    12     5     6   ar
    13     6     7   ar
    14     6    36    1
    15     7     8   ar
    16     7    37    1
    17     8     9    1
    18     8    29   ar
    19     9    10    1
    20     9    38    1
    21    10    11    1
    22    10    39    1
    23    10    40    1
    24    11    12    2
    25    11    13   am
    26    13    14    1
    27    13    41    1
    28    14    23   ar
    29    14    15   ar
    30    15    16   ar
    31    15    42    1
    32    16    17    1
    33    16    21   ar
    34    17    18    1
    35    17    19    1
    36    17    20    1
    37    21    22   ar
    38    21    43    1
    39    22    23   ar
    40    22    44    1
    41    23    24    1
    42    24    28    1
    43    24    25    1
    44    25    26    2
    45    25    45    1
    46    26    27    1
    47    27    28    2
    48    27    46    1
    49    29    30   ar
    50    29    47    1
@<TRIPOS>SUBSTRUCTURE
     1 ZINC000442864105        1 TEMP              0 ****  ****    0 ROOT


##########                                Name:    ZINC000611836474
##########                DOCK_Rotatable_Bonds:                   7
##########                         Heavy_Atoms:                  22
##########                    Molecular_Weight:             366.258
##########                DOCK_Rotatable_Bonds:                   7
##########                       Formal_Charge:          -0.0300004
##########                     HBond_Acceptors:                   5
##########                        HBond_Donors:                   1
##########                         Heavy_Atoms:                  22
##########                          Grid_Score:          -34.343632
##########                     Grid_vdw_energy:          -33.382580
##########                      Grid_es_energy:           -0.961052
##########           Internal_energy_repulsive:            8.138956

@<TRIPOS>MOLECULE
ZINC000611836474
 42 43 1 0 0
SMALL
USER_CHARGES


@<TRIPOS>ATOM
      1 C1        -10.9243   -2.6691   52.4471 C.3     1  ZINC000611836474   -0.1500
      2 C2        -12.0585   -3.5071   53.0409 C.3     1  ZINC000611836474   -0.1400
      3 C3        -11.8959   -3.5816   54.5604 C.3     1  ZINC000611836474    0.1300
      4 N4        -12.9614   -4.4133   55.1253 N.pl3   1  ZINC000611836474   -0.3900
      5 N5        -13.7532   -5.3291   54.4209 N.2     1  ZINC000611836474   -0.2900
      6 C6        -14.5922   -5.8801   55.2602 C.2     1  ZINC000611836474    0.0600
      7 C7        -14.3663   -5.3367   56.5278 C.2     1  ZINC000611836474   -0.2800
      8 C8        -13.3507   -4.4368   56.4204 C.2     1  ZINC000611836474    0.3000
      9 N9        -12.8144   -3.6719   57.4561 N.am    1  ZINC000611836474   -0.6500
     10 C10       -13.1984   -2.3898   57.6155 C.2     1  ZINC000611836474    0.5200
     11 O11       -14.0115   -1.9017   56.8593 O.2     1  ZINC000611836474   -0.4700
     12 C12       -12.6177   -1.5628   58.7335 C.3     1  ZINC000611836474    0.0700
     13 H13       -13.3817   -0.8895   59.1220 H       1  ZINC000611836474    0.1100
     14 C14       -11.4387   -0.7446   58.2033 C.3     1  ZINC000611836474   -0.1800
     15 O15       -12.1666   -2.4257   59.7795 O.3     1  ZINC000611836474   -0.2700
     16 C16       -11.4604   -1.8534   60.7900 C.ar    1  ZINC000611836474    0.1500
     17 C17       -12.0806   -0.9630   61.6534 C.ar    1  ZINC000611836474   -0.2000
     18 C18       -11.3606   -0.3823   62.6801 C.ar    1  ZINC000611836474   -0.0600
     19 C19       -10.0227   -0.6878   62.8469 C.ar    1  ZINC000611836474   -0.1100
     20 C20        -9.2401   -0.0525   63.9672 C.3     1  ZINC000611836474   -0.1100
     21 C21        -9.4014   -1.5757   61.9879 C.ar    1  ZINC000611836474   -0.0500
     22 C22       -10.1183   -2.1636   60.9631 C.ar    1  ZINC000611836474   -0.1200
     23 Br23       -9.2684   -3.3777   59.7886 Br      1  ZINC000611836474   -0.0300
     24 H24       -11.0401   -2.6162   51.3646 H       1  ZINC000611836474    0.0600
     25 H25       -10.9579   -1.6634   52.8658 H       1  ZINC000611836474    0.0600
     26 H26        -9.9668   -3.1312   52.6879 H       1  ZINC000611836474    0.0600
     27 H27       -13.0159   -3.0451   52.8001 H       1  ZINC000611836474    0.0800
     28 H28       -12.0248   -4.5128   52.6221 H       1  ZINC000611836474    0.0600
     29 H29       -10.9271   -4.0193   54.8011 H       1  ZINC000611836474    0.0800
     30 H30       -11.9561   -2.5781   54.9819 H       1  ZINC000611836474    0.1000
     31 H31       -15.3331   -6.6268   55.0153 H       1  ZINC000611836474    0.1900
     32 H32       -14.9001   -5.5884   57.4322 H       1  ZINC000611836474    0.1700
     33 H33       -12.1652   -4.0626   58.0617 H       1  ZINC000611836474    0.4100
     34 H34       -11.7827   -0.0864   57.4055 H       1  ZINC000611836474    0.0800
     35 H35       -11.0187   -0.1465   59.0120 H       1  ZINC000611836474    0.0800
     36 H36       -10.6746   -1.4179   57.8148 H       1  ZINC000611836474    0.0800
     37 H37       -13.1257   -0.7231   61.5233 H       1  ZINC000611836474    0.1400
     38 H38       -11.8435    0.3112   63.3526 H       1  ZINC000611836474    0.1300
     39 H39        -9.3067   -0.6782   64.8573 H       1  ZINC000611836474    0.0700
     40 H40        -8.1962    0.0470   63.6702 H       1  ZINC000611836474    0.0700
     41 H41        -9.6517    0.9332   64.1844 H       1  ZINC000611836474    0.0700
     42 H42        -8.3561   -1.8128   62.1203 H       1  ZINC000611836474    0.1400
@<TRIPOS>BOND
     1     1     2    1
     2     1    24    1
     3     1    25    1
     4     1    26    1
     5     2     3    1
     6     2    27    1
     7     2    28    1
     8     3     4    1
     9     3    29    1
    10     3    30    1
    11     4     8    1
    12     4     5    1
    13     5     6    2
    14     6     7    1
    15     6    31    1
    16     7     8    2
    17     7    32    1
    18     8     9    1
    19     9    10   am
    20     9    33    1
    21    10    11    2
    22    10    12    1
    23    12    13    1
    24    12    14    1
    25    12    15    1
    26    14    34    1
    27    14    35    1
    28    14    36    1
    29    15    16    1
    30    16    22   ar
    31    16    17   ar
    32    17    18   ar
    33    17    37    1
    34    18    19   ar
    35    18    38    1
    36    19    20    1
    37    19    21   ar
    38    20    39    1
    39    20    40    1
    40    20    41    1
    41    21    22   ar
    42    21    42    1
    43    22    23    1
@<TRIPOS>SUBSTRUCTURE
     1 ZINC000611836474        1 TEMP              0 ****  ****    0 ROOT


##########                                Name:    ZINC000564088286
##########                DOCK_Rotatable_Bonds:                   6
##########                         Heavy_Atoms:                  25
##########                    Molecular_Weight:             398.934
##########                DOCK_Rotatable_Bonds:                   6
##########                       Formal_Charge:               -0.05
##########                     HBond_Acceptors:                   8
##########                        HBond_Donors:                   1
##########                         Heavy_Atoms:                  25
##########                          Grid_Score:          -34.341602
##########                     Grid_vdw_energy:          -33.547379
##########                      Grid_es_energy:           -0.794223
##########           Internal_energy_repulsive:            9.696875

@<TRIPOS>MOLECULE
ZINC000564088286
 44 46 1 0 0
SMALL
USER_CHARGES


@<TRIPOS>ATOM
      1 C1        -14.7710   -1.8471   50.3257 C.3     1  ZINC000564088286   -0.1600
      2 C2        -13.9392   -2.1104   51.5827 C.3     1  ZINC000564088286    0.1100
      3 N3        -12.5383   -1.7712   51.3211 N.am    1  ZINC000564088286   -1.1200
      4 S4        -11.3289   -2.5815   52.1105 S.o2    1  ZINC000564088286    2.7000
      5 O5        -11.5599   -3.9654   51.8853 O.2     1  ZINC000564088286   -0.9600
      6 O6        -10.1153   -1.9294   51.7625 O.2     1  ZINC000564088286   -0.9600
      7 C7        -11.5612   -2.3128   53.8363 C.ar    1  ZINC000564088286   -0.6800
      8 C8        -11.0914   -1.1533   54.4246 C.ar    1  ZINC000564088286   -0.0200
      9 C9        -11.2735   -0.9425   55.7786 C.ar    1  ZINC000564088286   -0.1300
     10 C10       -11.9259   -1.8908   56.5442 C.ar    1  ZINC000564088286   -0.0100
     11 C11       -12.1240   -1.6611   58.0203 C.3     1  ZINC000564088286   -0.1100
     12 C12       -11.0065   -2.3217   58.7858 C.2     1  ZINC000564088286    0.5200
     13 O13       -10.0720   -2.8145   58.1902 O.2     1  ZINC000564088286   -0.5200
     14 N14       -11.0454   -2.3647   60.1323 N.am    1  ZINC000564088286   -0.6200
     15 C15        -9.9654   -3.0043   60.8986 C.3     1  ZINC000564088286    0.1200
     16 C16        -9.2576   -1.9321   61.7327 C.3     1  ZINC000564088286   -0.0700
     17 C17       -10.2979   -1.0612   62.4048 C.2     1  ZINC000564088286   -0.1600
     18 C18       -11.5889   -0.9720   62.0341 C.2     1  ZINC000564088286   -0.1200
     19 C19       -12.3368   -0.0915   62.8102 C.2     1  ZINC000564088286   -0.1100
     20 C20       -11.6746    0.5150   63.7918 C.2     1  ZINC000564088286   -0.1500
     21 Cl21      -12.3607    1.6543   64.9074 Cl      1  ZINC000564088286   -0.0100
     22 S22        -9.9991   -0.0142   63.7864 S.3     1  ZINC000564088286    0.1600
     23 C23       -12.1654   -1.7680   60.8739 C.3     1  ZINC000564088286    0.1700
     24 C24       -12.3968   -3.0495   55.9556 C.ar    1  ZINC000564088286   -0.1300
     25 C25       -12.2181   -3.2587   54.6009 C.ar    1  ZINC000564088286   -0.0200
     26 H26       -14.6966   -0.7939   50.0549 H       1  ZINC000564088286    0.0600
     27 H27       -14.3955   -2.4603   49.5066 H       1  ZINC000564088286    0.0600
     28 H28       -15.8134   -2.0994   50.5203 H       1  ZINC000564088286    0.0700
     29 H29       -14.3148   -1.4971   52.4018 H       1  ZINC000564088286    0.0800
     30 H30       -14.0137   -3.1636   51.8535 H       1  ZINC000564088286    0.0700
     31 H31       -12.3190   -1.0720   50.6855 H       1  ZINC000564088286    0.4200
     32 H32       -10.5818   -0.4125   53.8264 H       1  ZINC000564088286    0.1400
     33 H33       -10.9059   -0.0370   56.2382 H       1  ZINC000564088286    0.1300
     34 H34       -12.1213   -0.5906   58.2251 H       1  ZINC000564088286    0.1100
     35 H35       -13.0780   -2.0879   58.3296 H       1  ZINC000564088286    0.1100
     36 H36       -10.3849   -3.7636   61.5585 H       1  ZINC000564088286    0.0800
     37 H37        -9.2533   -3.4643   60.2134 H       1  ZINC000564088286    0.1100
     38 H38        -8.6377   -2.4105   62.4911 H       1  ZINC000564088286    0.0900
     39 H39        -8.6329   -1.3186   61.0835 H       1  ZINC000564088286    0.0900
     40 H40       -13.3860    0.0880   62.6274 H       1  ZINC000564088286    0.1500
     41 H41       -12.7343   -1.1075   60.2195 H       1  ZINC000564088286    0.1000
     42 H42       -12.8120   -2.5589   61.2539 H       1  ZINC000564088286    0.0900
     43 H43       -12.9067   -3.7902   56.5537 H       1  ZINC000564088286    0.1300
     44 H44       -12.5859   -4.1640   54.1411 H       1  ZINC000564088286    0.1400
@<TRIPOS>BOND
     1     1     2    1
     2     1    26    1
     3     1    27    1
     4     1    28    1
     5     2     3    1
     6     2    29    1
     7     2    30    1
     8     3     4   am
     9     3    31    1
    10     4     5    2
    11     4     6    2
    12     4     7    1
    13     7    25   ar
    14     7     8   ar
    15     8     9   ar
    16     8    32    1
    17     9    10   ar
    18     9    33    1
    19    10    11    1
    20    10    24   ar
    21    11    12    1
    22    11    34    1
    23    11    35    1
    24    12    13    2
    25    12    14   am
    26    14    23    1
    27    14    15    1
    28    15    16    1
    29    15    36    1
    30    15    37    1
    31    16    17    1
    32    16    38    1
    33    16    39    1
    34    17    22    1
    35    17    18    2
    36    18    19    1
    37    18    23    1
    38    19    20    2
    39    19    40    1
    40    20    21    1
    41    20    22    1
    42    23    41    1
    43    23    42    1
    44    24    25   ar
    45    24    43    1
    46    25    44    1
@<TRIPOS>SUBSTRUCTURE
     1 ZINC000564088286        1 TEMP              0 ****  ****    0 ROOT


##########                                Name:    ZINC001707162141
##########                DOCK_Rotatable_Bonds:                   9
##########                         Heavy_Atoms:                  25
##########                    Molecular_Weight:               344.5
##########                DOCK_Rotatable_Bonds:                   9
##########                       Formal_Charge:          -0.0299999
##########                     HBond_Acceptors:                   5
##########                        HBond_Donors:                   1
##########                         Heavy_Atoms:                  25
##########                          Grid_Score:          -34.337074
##########                     Grid_vdw_energy:          -33.863972
##########                      Grid_es_energy:           -0.473102
##########           Internal_energy_repulsive:           81.476212

@<TRIPOS>MOLECULE
ZINC001707162141
 57 59 1 0 0
SMALL
USER_CHARGES


@<TRIPOS>ATOM
      1 C1         -9.4410   -3.9751   59.8428 C.3     1  ZINC001707162141   -0.1800
      2 C2         -9.9217   -2.6228   59.3126 C.3     1  ZINC001707162141    0.1700
      3 H3         -9.2522   -2.2836   58.5220 H       1  ZINC001707162141    0.1000
      4 N4        -11.2819   -2.7626   58.7759 N.3     1  ZINC001707162141   -0.6400
      5 C5        -11.3402   -2.3351   57.3716 C.3     1  ZINC001707162141    0.0700
      6 C6        -12.6612   -2.7963   56.7526 C.3     1  ZINC001707162141    0.1500
      7 H7        -13.4911   -2.2820   57.2372 H       1  ZINC001707162141    0.0700
      8 C8        -12.8136   -4.3095   56.9359 C.3     1  ZINC001707162141   -0.1200
      9 C9        -14.0654   -4.7856   56.1954 C.3     1  ZINC001707162141   -0.0900
     10 H10       -14.9385   -4.2613   56.5840 H       1  ZINC001707162141    0.0700
     11 C11       -14.2400   -6.2912   56.4050 C.3     1  ZINC001707162141   -0.1500
     12 C12       -13.9183   -4.4927   54.7006 C.3     1  ZINC001707162141   -0.1300
     13 C13       -13.7785   -2.9815   54.4919 C.3     1  ZINC001707162141    0.1100
     14 N14       -12.6647   -2.4914   55.3153 N.am    1  ZINC001707162141   -0.6100
     15 C15       -11.6649   -1.7761   54.7626 C.2     1  ZINC001707162141    0.5100
     16 O16       -10.7511   -1.3772   55.4531 O.2     1  ZINC001707162141   -0.4800
     17 C17       -11.6825   -1.4721   53.2867 C.3     1  ZINC001707162141   -0.1400
     18 C18       -10.4154   -0.7019   52.9096 C.3     1  ZINC001707162141   -0.0900
     19 C19       -10.6404    0.7939   53.1395 C.3     1  ZINC001707162141   -0.0900
     20 C20        -9.3758    1.5648   52.7555 C.3     1  ZINC001707162141   -0.1500
     21 C21        -8.5907    2.2402   53.8818 C.3     1  ZINC001707162141   -0.1800
     22 C22        -9.4048    3.0875   52.9019 C.3     1  ZINC001707162141   -0.1800
     23 C23        -9.9252   -1.6160   60.4341 C.ar    1  ZINC001707162141    0.3500
     24 N24       -10.4853   -0.4393   60.2378 N.ar    1  ZINC001707162141   -0.5000
     25 C25       -10.5123    0.4677   61.2010 C.ar    1  ZINC001707162141    0.1500
     26 C26        -9.9314    0.1701   62.4237 C.ar    1  ZINC001707162141   -0.2400
     27 C27        -9.3472   -1.0757   62.5903 C.ar    1  ZINC001707162141    0.1500
     28 N28        -9.3633   -1.9339   61.5831 N.ar    1  ZINC001707162141   -0.5200
     29 H29        -9.4385   -4.7032   59.0317 H       1  ZINC001707162141    0.0600
     30 H30        -8.4318   -3.8712   60.2411 H       1  ZINC001707162141    0.0600
     31 H31       -10.1105   -4.3141   60.6333 H       1  ZINC001707162141    0.0600
     32 H32       -11.6162   -3.7088   58.8799 H       1  ZINC001707162141    0.3300
     33 H33       -11.2745   -1.2483   57.3196 H       1  ZINC001707162141    0.1000
     34 H34       -10.5082   -2.7761   56.8227 H       1  ZINC001707162141    0.0200
     35 H35       -11.9370   -4.8152   56.5310 H       1  ZINC001707162141    0.0700
     36 H36       -12.9090   -4.5397   57.9971 H       1  ZINC001707162141    0.0700
     37 H37       -13.3673   -6.8157   56.0160 H       1  ZINC001707162141    0.0500
     38 H38       -14.3448   -6.5001   57.4697 H       1  ZINC001707162141    0.0600
     39 H39       -15.1322   -6.6301   55.8786 H       1  ZINC001707162141    0.0600
     40 H40       -14.8000   -4.8531   54.1707 H       1  ZINC001707162141    0.0700
     41 H41       -13.0313   -4.9966   54.3167 H       1  ZINC001707162141    0.0700
     42 H42       -14.7009   -2.4843   54.7916 H       1  ZINC001707162141    0.0600
     43 H43       -13.5745   -2.7750   53.4412 H       1  ZINC001707162141    0.0800
     44 H44       -11.7218   -2.4048   52.7241 H       1  ZINC001707162141    0.0800
     45 H45       -12.5587   -0.8681   53.0507 H       1  ZINC001707162141    0.0800
     46 H46        -9.5850   -1.0436   53.5275 H       1  ZINC001707162141    0.0700
     47 H47       -10.1829   -0.8771   51.8592 H       1  ZINC001707162141    0.0700
     48 H48       -11.4741    1.1345   52.5255 H       1  ZINC001707162141    0.0600
     49 H49       -10.8679    0.9697   54.1910 H       1  ZINC001707162141    0.0600
     50 H50        -8.8068    1.1499   51.9235 H       1  ZINC001707162141    0.1000
     51 H51        -8.9752    2.1352   54.8963 H       1  ZINC001707162141    0.0900
     52 H52        -7.5049    2.2696   53.7909 H       1  ZINC001707162141    0.0900
     53 H53        -8.8547    3.6744   52.1664 H       1  ZINC001707162141    0.0900
     54 H54       -10.3248    3.5400   53.2718 H       1  ZINC001707162141    0.0900
     55 H55       -10.9764    1.4287   61.0351 H       1  ZINC001707162141    0.1600
     56 H56        -9.9342    0.8914   63.2276 H       1  ZINC001707162141    0.1400
     57 H57        -8.8849   -1.3422   63.5292 H       1  ZINC001707162141    0.1600
@<TRIPOS>BOND
     1     1     2    1
     2     1    29    1
     3     1    30    1
     4     1    31    1
     5     2     3    1
     6     2     4    1
     7     2    23    1
     8     4     5    1
     9     4    32    1
    10     5     6    1
    11     5    33    1
    12     5    34    1
    13     6     7    1
    14     6    14    1
    15     6     8    1
    16     8     9    1
    17     8    35    1
    18     8    36    1
    19     9    10    1
    20     9    11    1
    21     9    12    1
    22    11    37    1
    23    11    38    1
    24    11    39    1
    25    12    13    1
    26    12    40    1
    27    12    41    1
    28    13    14    1
    29    13    42    1
    30    13    43    1
    31    14    15   am
    32    15    16    2
    33    15    17    1
    34    17    18    1
    35    17    44    1
    36    17    45    1
    37    18    19    1
    38    18    46    1
    39    18    47    1
    40    19    20    1
    41    19    48    1
    42    19    49    1
    43    20    22    1
    44    20    21    1
    45    20    50    1
    46    21    22    1
    47    21    51    1
    48    21    52    1
    49    22    53    1
    50    22    54    1
    51    23    28   ar
    52    23    24   ar
    53    24    25   ar
    54    25    26   ar
    55    25    55    1
    56    26    27   ar
    57    26    56    1
    58    27    28   ar
    59    27    57    1
@<TRIPOS>SUBSTRUCTURE
     1 ZINC001707162141        1 TEMP              0 ****  ****    0 ROOT


##########                                Name:    ZINC000175255939
##########                DOCK_Rotatable_Bonds:                   8
##########                         Heavy_Atoms:                  28
##########                    Molecular_Weight:             394.375
##########                DOCK_Rotatable_Bonds:                   8
##########                       Formal_Charge:          -0.0399999
##########                     HBond_Acceptors:                   9
##########                        HBond_Donors:                   1
##########                         Heavy_Atoms:                  28
##########                          Grid_Score:          -34.295036
##########                     Grid_vdw_energy:          -33.592381
##########                      Grid_es_energy:           -0.702657
##########           Internal_energy_repulsive:            9.071980

@<TRIPOS>MOLECULE
ZINC000175255939
 48 50 1 0 0
SMALL
USER_CHARGES


@<TRIPOS>ATOM
      1 C1        -17.4303   -4.0110   45.7039 C.3     1  ZINC000175255939    0.0300
      2 O2        -16.2727   -3.4026   46.3349 O.3     1  ZINC000175255939   -0.3600
      3 C3        -16.4744   -2.2542   47.0000 C.2     1  ZINC000175255939    0.4600
      4 O4        -17.5814   -1.7732   47.0529 O.2     1  ZINC000175255939   -0.5000
      5 C5        -15.3200   -1.5651   47.6807 C.3     1  ZINC000175255939   -0.0800
      6 H6        -14.3988   -1.7777   47.1382 H       1  ZINC000175255939    0.1100
      7 C7        -15.5653   -0.0550   47.6972 C.3     1  ZINC000175255939   -0.1200
      8 C8        -14.3932    0.6446   48.3884 C.3     1  ZINC000175255939   -0.1100
      9 C9        -14.2689    0.1325   49.8247 C.3     1  ZINC000175255939   -0.1200
     10 C10       -14.0235   -1.3776   49.8083 C.3     1  ZINC000175255939   -0.1000
     11 H11       -13.1023   -1.5902   49.2658 H       1  ZINC000175255939    0.1100
     12 C12       -13.9010   -1.8820   51.2231 C.2     1  ZINC000175255939    0.5100
     13 O13       -14.8985   -2.1196   51.8707 O.2     1  ZINC000175255939   -0.4800
     14 N14       -12.6829   -2.0691   51.7687 N.am    1  ZINC000175255939   -0.6300
     15 C15       -12.5701   -2.5321   53.0721 C.2     1  ZINC000175255939    0.2100
     16 C16       -11.6059   -2.1983   53.9756 C.2     1  ZINC000175255939   -0.2600
     17 C17       -11.9535   -2.9406   55.1340 C.2     1  ZINC000175255939    0.0900
     18 C18       -11.2349   -2.9537   56.4322 C.ar    1  ZINC000175255939   -0.0500
     19 C19       -10.6813   -1.7779   56.9357 C.ar    1  ZINC000175255939   -0.0600
     20 C20       -10.0141   -1.7930   58.1422 C.ar    1  ZINC000175255939   -0.1300
     21 C21        -9.8931   -2.9783   58.8554 C.ar    1  ZINC000175255939    0.1200
     22 O22        -9.2353   -2.9903   60.0438 O.3     1  ZINC000175255939   -0.3200
     23 C23        -9.5151   -1.9223   60.9510 C.3     1  ZINC000175255939    0.4100
     24 F24       -10.8986   -1.8098   61.1263 F       1  ZINC000175255939   -0.2000
     25 F25        -8.9088   -2.1866   62.1838 F       1  ZINC000175255939   -0.2000
     26 C26       -10.4437   -4.1512   58.3562 C.ar    1  ZINC000175255939   -0.1900
     27 C27       -11.1174   -4.1407   57.1532 C.ar    1  ZINC000175255939   -0.0500
     28 N28       -13.0374   -3.6129   54.8275 N.2     1  ZINC000175255939   -0.3600
     29 O29       -13.3927   -3.3924   53.6933 O.3     1  ZINC000175255939    0.1200
     30 C30       -15.1955   -2.0772   49.1172 C.3     1  ZINC000175255939   -0.0900
     31 H31       -17.1293   -4.9305   45.2020 H       1  ZINC000175255939    0.1000
     32 H32       -18.1793   -4.2395   46.4623 H       1  ZINC000175255939    0.0600
     33 H33       -17.8515   -3.3198   44.9739 H       1  ZINC000175255939    0.0600
     34 H34       -15.6539    0.3097   46.6739 H       1  ZINC000175255939    0.0800
     35 H35       -16.4864    0.1575   48.2398 H       1  ZINC000175255939    0.0700
     36 H36       -13.4721    0.4321   47.8458 H       1  ZINC000175255939    0.0700
     37 H37       -14.5681    1.7204   48.4000 H       1  ZINC000175255939    0.0800
     38 H38       -13.4339    0.6309   50.3172 H       1  ZINC000175255939    0.0700
     39 H39       -15.1900    0.3451   50.3673 H       1  ZINC000175255939    0.0800
     40 H40       -11.8851   -1.8804   51.2503 H       1  ZINC000175255939    0.4300
     41 H41       -10.7715   -1.5258   53.8412 H       1  ZINC000175255939    0.1800
     42 H42       -10.7745   -0.8558   56.3810 H       1  ZINC000175255939    0.1400
     43 H43        -9.5848   -0.8822   58.5327 H       1  ZINC000175255939    0.1400
     44 H44        -9.1231   -0.9893   60.5460 H       1  ZINC000175255939    0.1900
     45 H45       -10.3481   -5.0716   58.9130 H       1  ZINC000175255939    0.1400
     46 H46       -11.5457   -5.0532   56.7657 H       1  ZINC000175255939    0.1400
     47 H47       -16.1167   -1.8647   49.6597 H       1  ZINC000175255939    0.0900
     48 H48       -15.0208   -3.1531   49.1055 H       1  ZINC000175255939    0.0800
@<TRIPOS>BOND
     1     1     2    1
     2     1    31    1
     3     1    32    1
     4     1    33    1
     5     2     3    1
     6     3     4    2
     7     3     5    1
     8     5     6    1
     9     5    30    1
    10     5     7    1
    11     7     8    1
    12     7    34    1
    13     7    35    1
    14     8     9    1
    15     8    36    1
    16     8    37    1
    17     9    10    1
    18     9    38    1
    19     9    39    1
    20    10    11    1
    21    10    12    1
    22    10    30    1
    23    12    13    2
    24    12    14   am
    25    14    15    1
    26    14    40    1
    27    15    29    1
    28    15    16    2
    29    16    17    1
    30    16    41    1
    31    17    18    1
    32    17    28    2
    33    18    27   ar
    34    18    19   ar
    35    19    20   ar
    36    19    42    1
    37    20    21   ar
    38    20    43    1
    39    21    22    1
    40    21    26   ar
    41    22    23    1
    42    23    24    1
    43    23    25    1
    44    23    44    1
    45    26    27   ar
    46    26    45    1
    47    27    46    1
    48    28    29    1
    49    30    47    1
    50    30    48    1
@<TRIPOS>SUBSTRUCTURE
     1 ZINC000175255939        1 TEMP              0 ****  ****    0 ROOT


##########                                Name:    ZINC000863246516
##########                DOCK_Rotatable_Bonds:                   5
##########                         Heavy_Atoms:                  25
##########                    Molecular_Weight:             356.489
##########                DOCK_Rotatable_Bonds:                   5
##########                       Formal_Charge:         -0.00999938
##########                     HBond_Acceptors:                   5
##########                        HBond_Donors:                   0
##########                         Heavy_Atoms:                  25
##########                          Grid_Score:          -34.293022
##########                     Grid_vdw_energy:          -34.037109
##########                      Grid_es_energy:           -0.255912
##########           Internal_energy_repulsive:           10.377153

@<TRIPOS>MOLECULE
ZINC000863246516
 49 52 1 0 0
SMALL
USER_CHARGES


@<TRIPOS>ATOM
      1 C1        -16.0065   -2.6745   51.7167 C.3     1  ZINC000863246516   -0.0600
      2 C2        -14.5518   -2.7470   52.1037 C.2     1  ZINC000863246516   -0.2000
      3 C3        -14.0270   -3.3802   53.1435 C.2     1  ZINC000863246516    0.0900
      4 C4        -14.8841   -4.1474   54.1169 C.3     1  ZINC000863246516   -0.1000
      5 N5        -12.6738   -3.3033   53.2884 N.am    1  ZINC000863246516   -0.5300
      6 C6        -11.9869   -3.9648   54.4005 C.3     1  ZINC000863246516    0.1200
      7 C7        -11.9445   -3.0236   55.6060 C.3     1  ZINC000863246516   -0.1500
      8 C8        -11.4320   -3.7718   56.8096 C.2     1  ZINC000863246516    0.5400
      9 O9        -11.5751   -4.9739   56.8826 O.2     1  ZINC000863246516   -0.5300
     10 N10       -10.8147   -3.1050   57.8050 N.am    1  ZINC000863246516   -0.6100
     11 C11       -10.2725   -3.7134   59.0252 C.3     1  ZINC000863246516    0.1100
     12 C12        -9.2841   -2.6960   59.6263 C.3     1  ZINC000863246516   -0.1300
     13 H13        -8.2299   -2.9080   59.4488 H       1  ZINC000863246516    0.1000
     14 C14        -9.6630   -2.2561   61.0502 C.3     1  ZINC000863246516   -0.1200
     15 C15       -10.7124   -1.3338   60.4092 C.3     1  ZINC000863246516   -0.0600
     16 H16       -11.6812   -1.8114   60.2628 H       1  ZINC000863246516    0.1000
     17 C17       -10.8197    0.0129   61.0771 C.ar    1  ZINC000863246516   -0.0700
     18 C18       -11.0672    1.1424   60.3195 C.ar    1  ZINC000863246516   -0.1200
     19 C19       -11.1655    2.3776   60.9321 C.ar    1  ZINC000863246516   -0.1200
     20 C20       -11.0168    2.4835   62.3024 C.ar    1  ZINC000863246516   -0.1200
     21 C21       -10.7703    1.3538   63.0601 C.ar    1  ZINC000863246516   -0.1200
     22 C22       -10.6762    0.1179   62.4479 C.ar    1  ZINC000863246516   -0.1200
     23 C23        -9.8225   -1.3296   59.1336 C.3     1  ZINC000863246516   -0.1100
     24 H24        -9.1007   -0.5161   59.0606 H       1  ZINC000863246516    0.1200
     25 C25       -10.5741   -1.6586   57.8352 C.3     1  ZINC000863246516    0.1200
     26 C26       -11.9966   -2.5967   52.3696 C.2     1  ZINC000863246516    0.4800
     27 O27       -10.7932   -2.4119   52.3259 O.2     1  ZINC000863246516   -0.4700
     28 S28       -13.1774   -2.0106   51.2614 S.3     1  ZINC000863246516    0.0100
     29 H29       -16.1116   -2.0817   50.8080 H       1  ZINC000863246516    0.0700
     30 H30       -16.3861   -3.6808   51.5400 H       1  ZINC000863246516    0.0800
     31 H31       -16.5739   -2.2083   52.5223 H       1  ZINC000863246516    0.0800
     32 H32       -15.9289   -4.0780   53.8141 H       1  ZINC000863246516    0.0900
     33 H33       -14.5771   -5.1933   54.1255 H       1  ZINC000863246516    0.0800
     34 H34       -14.7664   -3.7261   55.1153 H       1  ZINC000863246516    0.0800
     35 H35       -12.5232   -4.8750   54.6689 H       1  ZINC000863246516    0.1000
     36 H36       -10.9699   -4.2172   54.1006 H       1  ZINC000863246516    0.1000
     37 H37       -11.2816   -2.1858   55.3897 H       1  ZINC000863246516    0.1000
     38 H38       -12.9477   -2.6498   55.8105 H       1  ZINC000863246516    0.1000
     39 H39       -11.0780   -3.9132   59.7320 H       1  ZINC000863246516    0.0700
     40 H40        -9.7519   -4.6394   58.7808 H       1  ZINC000863246516    0.0800
     41 H41       -10.0948   -3.0550   61.6530 H       1  ZINC000863246516    0.0800
     42 H42        -8.8676   -1.7186   61.5665 H       1  ZINC000863246516    0.0900
     43 H43       -11.1833    1.0598   59.2490 H       1  ZINC000863246516    0.1200
     44 H44       -11.3581    3.2602   60.3401 H       1  ZINC000863246516    0.1200
     45 H45       -11.0929    3.4486   62.7809 H       1  ZINC000863246516    0.1200
     46 H46       -10.6537    1.4364   64.1306 H       1  ZINC000863246516    0.1200
     47 H47       -10.4835   -0.7646   63.0399 H       1  ZINC000863246516    0.1200
     48 H48        -9.9776   -1.3517   56.9760 H       1  ZINC000863246516    0.0700
     49 H49       -11.5327   -1.1400   57.8227 H       1  ZINC000863246516    0.0700
@<TRIPOS>BOND
     1     1     2    1
     2     1    29    1
     3     1    30    1
     4     1    31    1
     5     2    28    1
     6     2     3    2
     7     3     4    1
     8     3     5    1
     9     4    32    1
    10     4    33    1
    11     4    34    1
    12     5     6    1
    13     5    26   am
    14     6     7    1
    15     6    35    1
    16     6    36    1
    17     7     8    1
    18     7    37    1
    19     7    38    1
    20     8     9    2
    21     8    10   am
    22    10    25    1
    23    10    11    1
    24    11    12    1
    25    11    39    1
    26    11    40    1
    27    12    13    1
    28    12    23    1
    29    12    14    1
    30    14    15    1
    31    14    41    1
    32    14    42    1
    33    15    16    1
    34    15    17    1
    35    15    23    1
    36    17    22   ar
    37    17    18   ar
    38    18    19   ar
    39    18    43    1
    40    19    20   ar
    41    19    44    1
    42    20    21   ar
    43    20    45    1
    44    21    22   ar
    45    21    46    1
    46    22    47    1
    47    23    24    1
    48    23    25    1
    49    25    48    1
    50    25    49    1
    51    26    27    2
    52    26    28    1
@<TRIPOS>SUBSTRUCTURE
     1 ZINC000863246516        1 TEMP              0 ****  ****    0 ROOT


##########                                Name:    ZINC000151303733
##########                DOCK_Rotatable_Bonds:                   7
##########                         Heavy_Atoms:                  26
##########                    Molecular_Weight:             369.444
##########                DOCK_Rotatable_Bonds:                   7
##########                       Formal_Charge:        -1.93715e-07
##########                     HBond_Acceptors:                   7
##########                        HBond_Donors:                   2
##########                         Heavy_Atoms:                  26
##########                          Grid_Score:          -34.286785
##########                     Grid_vdw_energy:          -33.558285
##########                      Grid_es_energy:           -0.728502
##########           Internal_energy_repulsive:            8.581966

@<TRIPOS>MOLECULE
ZINC000151303733
 45 48 1 0 0
SMALL
USER_CHARGES


@<TRIPOS>ATOM
      1 C1         -9.3024    2.2640   54.6775 C.3     1  ZINC000151303733   -0.1000
      2 C2         -8.3689    2.0720   53.5101 C.2     1  ZINC000151303733   -0.1200
      3 C3         -7.1742    2.6608   53.4423 C.2     1  ZINC000151303733   -0.2000
      4 S4         -6.3730    2.2059   51.9443 S.3     1  ZINC000151303733    0.1200
      5 C5         -7.7447    1.2102   51.4753 C.2     1  ZINC000151303733   -0.2400
      6 C6         -8.6846    1.2645   52.4262 C.2     1  ZINC000151303733    0.1200
      7 N7         -9.9021    0.5654   52.3302 N.am    1  ZINC000151303733   -0.6400
      8 C8         -9.9000   -0.7667   52.1256 C.2     1  ZINC000151303733    0.5100
      9 O9         -8.8485   -1.3631   52.0241 O.2     1  ZINC000151303733   -0.5100
     10 C10       -11.2039   -1.5153   52.0227 C.3     1  ZINC000151303733    0.1000
     11 N11       -11.8202   -1.6069   53.3486 N.am    1  ZINC000151303733   -0.7100
     12 C12       -11.5356   -2.6498   54.1535 C.2     1  ZINC000151303733    0.5200
     13 O13       -10.7702   -3.5130   53.7796 O.2     1  ZINC000151303733   -0.5100
     14 C14       -12.1682   -2.7430   55.5181 C.3     1  ZINC000151303733    0.1600
     15 H15       -13.0594   -2.1170   55.5609 H       1  ZINC000151303733    0.1300
     16 C16       -11.1827   -2.3150   56.5766 C.ar    1  ZINC000151303733   -0.0900
     17 C17       -10.5112   -1.1394   56.8187 C.ar    1  ZINC000151303733   -0.0900
     18 C18        -9.6477   -1.0455   57.8977 C.ar    1  ZINC000151303733   -0.0800
     19 C19        -9.4584   -2.1315   58.7335 C.ar    1  ZINC000151303733   -0.1200
     20 C20       -10.1271   -3.3156   58.4996 C.ar    1  ZINC000151303733   -0.0400
     21 C21       -10.9989   -3.4179   57.4143 C.ar    1  ZINC000151303733   -0.1500
     22 C22       -11.8383   -4.5235   56.9145 C.2     1  ZINC000151303733    0.5600
     23 O23       -11.9082   -5.6263   57.4206 O.2     1  ZINC000151303733   -0.5100
     24 N24       -12.5159   -4.1366   55.8184 N.am    1  ZINC000151303733   -0.5700
     25 C25       -13.4462   -4.9694   55.0522 C.3     1  ZINC000151303733    0.0900
     26 C26       -14.6006   -5.6235   55.8141 C.3     1  ZINC000151303733   -0.1800
     27 C27       -14.8740   -4.4504   54.8708 C.3     1  ZINC000151303733   -0.1900
     28 H28        -9.0992    1.5057   55.4336 H       1  ZINC000151303733    0.0700
     29 H29        -9.1495    3.2545   55.1059 H       1  ZINC000151303733    0.0700
     30 H30       -10.3337    2.1705   54.3371 H       1  ZINC000151303733    0.0600
     31 H31        -6.7613    3.3179   54.1934 H       1  ZINC000151303733    0.1700
     32 H32        -7.8156    0.6388   50.5616 H       1  ZINC000151303733    0.2000
     33 H33       -10.7428    1.0423   52.4111 H       1  ZINC000151303733    0.4200
     34 H34       -11.8745   -0.9856   51.3461 H       1  ZINC000151303733    0.1100
     35 H35       -11.0177   -2.5182   51.6385 H       1  ZINC000151303733    0.1100
     36 H36       -12.4333   -0.9170   53.6471 H       1  ZINC000151303733    0.4100
     37 H37       -10.6568   -0.2900   56.1677 H       1  ZINC000151303733    0.1300
     38 H38        -9.1206   -0.1221   58.0867 H       1  ZINC000151303733    0.1400
     39 H39        -8.7835   -2.0522   59.5730 H       1  ZINC000151303733    0.1400
     40 H40        -9.9766   -4.1609   59.1548 H       1  ZINC000151303733    0.1400
     41 H41       -13.0058   -5.5296   54.2274 H       1  ZINC000151303733    0.1400
     42 H42       -14.9197   -6.6144   55.4907 H       1  ZINC000151303733    0.1000
     43 H43       -14.6679   -5.4343   56.8854 H       1  ZINC000151303733    0.1300
     44 H44       -15.1212   -3.4892   55.3215 H       1  ZINC000151303733    0.1000
     45 H45       -15.3730   -4.6694   53.9268 H       1  ZINC000151303733    0.1000
@<TRIPOS>BOND
     1     1     2    1
     2     1    28    1
     3     1    29    1
     4     1    30    1
     5     2     6    1
     6     2     3    2
     7     3     4    1
     8     3    31    1
     9     4     5    1
    10     5     6    2
    11     5    32    1
    12     6     7    1
    13     7     8   am
    14     7    33    1
    15     8     9    2
    16     8    10    1
    17    10    11    1
    18    10    34    1
    19    10    35    1
    20    11    12   am
    21    11    36    1
    22    12    13    2
    23    12    14    1
    24    14    15    1
    25    14    24    1
    26    14    16    1
    27    16    21   ar
    28    16    17   ar
    29    17    18   ar
    30    17    37    1
    31    18    19   ar
    32    18    38    1
    33    19    20   ar
    34    19    39    1
    35    20    21   ar
    36    20    40    1
    37    21    22    1
    38    22    23    2
    39    22    24   am
    40    24    25    1
    41    25    27    1
    42    25    26    1
    43    25    41    1
    44    26    27    1
    45    26    42    1
    46    26    43    1
    47    27    44    1
    48    27    45    1
@<TRIPOS>SUBSTRUCTURE
     1 ZINC000151303733        1 TEMP              0 ****  ****    0 ROOT


##########                                Name:    ZINC000417533280
##########                DOCK_Rotatable_Bonds:                   9
##########                         Heavy_Atoms:                  26
##########                    Molecular_Weight:             367.439
##########                DOCK_Rotatable_Bonds:                   9
##########                       Formal_Charge:         -0.00999999
##########                     HBond_Acceptors:                   7
##########                        HBond_Donors:                   2
##########                         Heavy_Atoms:                  26
##########                          Grid_Score:          -34.258232
##########                     Grid_vdw_energy:          -34.273949
##########                      Grid_es_energy:            0.015718
##########           Internal_energy_repulsive:           18.414125

@<TRIPOS>MOLECULE
ZINC000417533280
 53 54 1 0 0
SMALL
USER_CHARGES


@<TRIPOS>ATOM
      1 C1        -14.9037   -2.2769   53.9502 C.3     1  ZINC000417533280   -0.1600
      2 C2        -14.6604   -3.7062   53.4616 C.3     1  ZINC000417533280   -0.1200
      3 C3        -13.7685   -4.4427   54.4630 C.3     1  ZINC000417533280   -0.1200
      4 C4        -14.5854   -4.8010   55.7062 C.3     1  ZINC000417533280   -0.1300
      5 C5        -13.6563   -5.3699   56.7803 C.3     1  ZINC000417533280    0.1200
      6 N6        -12.8728   -4.2835   57.3737 N.am    1  ZINC000417533280   -0.7300
      7 C7        -11.6244   -4.5204   57.8228 C.2     1  ZINC000417533280    0.5200
      8 O8        -11.1489   -5.6326   57.7343 O.2     1  ZINC000417533280   -0.5400
      9 C9        -10.8191   -3.4031   58.4348 C.3     1  ZINC000417533280   -0.1100
     10 C10       -11.7591   -2.2771   58.8715 C.3     1  ZINC000417533280   -0.1300
     11 C11       -10.9344   -1.1288   59.4614 C.3     1  ZINC000417533280    0.1300
     12 N12       -10.0874   -1.6595   60.5382 N.am    1  ZINC000417533280   -0.6200
     13 C13       -10.1143   -1.1083   61.7679 C.2     1  ZINC000417533280    0.7100
     14 O14        -9.4085   -1.5567   62.6505 O.2     1  ZINC000417533280   -0.5600
     15 N15       -10.9235   -0.0602   62.0190 N.am    1  ZINC000417533280   -0.6800
     16 C16       -10.9515    0.5125   63.2968 C.ar    1  ZINC000417533280    0.1900
     17 C17        -9.7799    0.9854   63.8720 C.ar    1  ZINC000417533280   -0.1100
     18 C18        -9.8084    1.5508   65.1325 C.ar    1  ZINC000417533280   -0.1100
     19 C19       -11.0040    1.6461   65.8227 C.ar    1  ZINC000417533280    0.0500
     20 F20       -11.0295    2.1997   67.0549 F       1  ZINC000417533280   -0.1300
     21 C21       -12.1763    1.1746   65.2507 C.ar    1  ZINC000417533280    0.0900
     22 F22       -13.3427    1.2685   65.9257 F       1  ZINC000417533280   -0.1200
     23 C23       -12.1519    0.6131   63.9872 C.ar    1  ZINC000417533280   -0.1300
     24 C24       -13.4252    0.1009   63.3647 C.3     1  ZINC000417533280   -0.1200
     25 C25        -9.2109   -2.8026   60.2493 C.3     1  ZINC000417533280    0.1100
     26 C26       -10.0549   -3.9322   59.6505 C.3     1  ZINC000417533280   -0.1200
     27 H27       -15.3950   -2.3041   54.9229 H       1  ZINC000417533280    0.0500
     28 H28       -13.9503   -1.7561   54.0392 H       1  ZINC000417533280    0.0500
     29 H29       -15.5391   -1.7521   53.2367 H       1  ZINC000417533280    0.0500
     30 H30       -15.6138   -4.2270   53.3726 H       1  ZINC000417533280    0.0600
     31 H31       -14.1692   -3.6789   52.4889 H       1  ZINC000417533280    0.0600
     32 H32       -13.3844   -5.3543   54.0055 H       1  ZINC000417533280    0.0700
     33 H33       -12.9354   -3.8004   54.7485 H       1  ZINC000417533280    0.0700
     34 H34       -15.0773   -3.9064   56.0879 H       1  ZINC000417533280    0.0700
     35 H35       -15.3373   -5.5455   55.4446 H       1  ZINC000417533280    0.0700
     36 H36       -14.2504   -5.8546   57.5551 H       1  ZINC000417533280    0.0700
     37 H37       -12.9831   -6.0991   56.3293 H       1  ZINC000417533280    0.0700
     38 H38       -13.2526   -3.3937   57.4433 H       1  ZINC000417533280    0.4000
     39 H39       -10.1115   -3.0205   57.6994 H       1  ZINC000417533280    0.1000
     40 H40       -12.3201   -1.9166   58.0092 H       1  ZINC000417533280    0.0800
     41 H41       -12.4512   -2.6527   59.6252 H       1  ZINC000417533280    0.0800
     42 H42       -10.3069   -0.6927   58.6841 H       1  ZINC000417533280    0.0700
     43 H43       -11.6030   -0.3678   59.8637 H       1  ZINC000417533280    0.1000
     44 H44       -11.4865    0.2975   61.3148 H       1  ZINC000417533280    0.4100
     45 H45        -8.8462    0.9111   63.3344 H       1  ZINC000417533280    0.1700
     46 H46        -8.8965    1.9182   65.5796 H       1  ZINC000417533280    0.1500
     47 H47       -13.9017    0.9025   62.8003 H       1  ZINC000417533280    0.0800
     48 H48       -13.1946   -0.7276   62.6950 H       1  ZINC000417533280    0.0700
     49 H49       -14.1002   -0.2425   64.1485 H       1  ZINC000417533280    0.0800
     50 H50        -8.4427   -2.5031   59.5363 H       1  ZINC000417533280    0.0800
     51 H51        -8.7423   -3.1461   61.1716 H       1  ZINC000417533280    0.0800
     52 H52       -10.7630   -4.2922   60.3970 H       1  ZINC000417533280    0.0800
     53 H53        -9.4029   -4.7497   59.3428 H       1  ZINC000417533280    0.0900
@<TRIPOS>BOND
     1     1     2    1
     2     1    27    1
     3     1    28    1
     4     1    29    1
     5     2     3    1
     6     2    30    1
     7     2    31    1
     8     3     4    1
     9     3    32    1
    10     3    33    1
    11     4     5    1
    12     4    34    1
    13     4    35    1
    14     5     6    1
    15     5    36    1
    16     5    37    1
    17     6     7   am
    18     6    38    1
    19     7     8    2
    20     7     9    1
    21     9    26    1
    22     9    10    1
    23     9    39    1
    24    10    11    1
    25    10    40    1
    26    10    41    1
    27    11    12    1
    28    11    42    1
    29    11    43    1
    30    12    13   am
    31    12    25    1
    32    13    14    2
    33    13    15   am
    34    15    16    1
    35    15    44    1
    36    16    23   ar
    37    16    17   ar
    38    17    18   ar
    39    17    45    1
    40    18    19   ar
    41    18    46    1
    42    19    20    1
    43    19    21   ar
    44    21    22    1
    45    21    23   ar
    46    23    24    1
    47    24    47    1
    48    24    48    1
    49    24    49    1
    50    25    26    1
    51    25    50    1
    52    25    51    1
    53    26    52    1
    54    26    53    1
@<TRIPOS>SUBSTRUCTURE
     1 ZINC000417533280        1 TEMP              0 ****  ****    0 ROOT


##########                                Name:    ZINC000132775118
##########                DOCK_Rotatable_Bonds:                   5
##########                         Heavy_Atoms:                  27
##########                    Molecular_Weight:             376.499
##########                DOCK_Rotatable_Bonds:                   5
##########                       Formal_Charge:        -4.76837e-07
##########                     HBond_Acceptors:                   7
##########                        HBond_Donors:                   1
##########                         Heavy_Atoms:                  27
##########                          Grid_Score:          -34.243301
##########                     Grid_vdw_energy:          -33.029781
##########                      Grid_es_energy:           -1.213521
##########           Internal_energy_repulsive:           22.544031

@<TRIPOS>MOLECULE
ZINC000132775118
 59 62 1 0 0
SMALL
USER_CHARGES


@<TRIPOS>ATOM
      1 O1        -14.0773   -5.5509   56.2856 O.2     1  ZINC000132775118   -0.5200
      2 C2        -13.1687   -4.7843   56.0457 C.2     1  ZINC000132775118    0.5200
      3 C3        -12.1226   -4.5039   57.0937 C.3     1  ZINC000132775118    0.0300
      4 N4        -12.3107   -3.1464   57.6224 N.3     1  ZINC000132775118   -0.5100
      5 C5        -13.7367   -2.8548   57.8303 C.3     1  ZINC000132775118    0.0300
      6 C6        -13.9101   -1.5590   58.5689 C.2     1  ZINC000132775118    0.5300
      7 O7        -15.0049   -1.0371   58.5690 O.2     1  ZINC000132775118   -0.5500
      8 N8        -12.9142   -0.9517   59.2283 N.am    1  ZINC000132775118   -0.7200
      9 C9        -11.5547   -1.4740   59.2225 C.3     1  ZINC000132775118    0.1500
     10 H10       -10.9754   -0.9445   58.4661 H       1  ZINC000132775118    0.0800
     11 C11       -10.8781   -1.2957   60.5798 C.3     1  ZINC000132775118   -0.1300
     12 C12        -9.4367   -1.8063   60.4856 C.3     1  ZINC000132775118   -0.1200
     13 C13        -9.4304   -3.2820   60.0861 C.3     1  ZINC000132775118   -0.1200
     14 C14       -10.1363   -3.4628   58.7385 C.3     1  ZINC000132775118   -0.1200
     15 C15       -11.5752   -2.9649   58.8790 C.3     1  ZINC000132775118    0.0700
     16 H16       -12.0772   -3.5266   59.6667 H       1  ZINC000132775118    0.0600
     17 N17       -13.0915   -4.1873   54.8398 N.am    1  ZINC000132775118   -0.6200
     18 C18       -14.1070   -4.4461   53.8100 C.3     1  ZINC000132775118    0.1100
     19 C19       -14.6732   -3.1066   53.3283 C.3     1  ZINC000132775118   -0.1200
     20 C20       -13.5238   -2.2083   52.8659 C.3     1  ZINC000132775118   -0.1000
     21 C21       -14.0799   -0.9023   52.3595 C.2     1  ZINC000132775118    0.5300
     22 O22       -14.4514   -0.0562   53.1449 O.2     1  ZINC000132775118   -0.5300
     23 N23       -14.1642   -0.6747   51.0338 N.am    1  ZINC000132775118   -0.6200
     24 C24       -13.7580   -1.6116   49.9760 C.3     1  ZINC000132775118    0.1000
     25 C25       -14.0126   -0.9137   48.6233 C.3     1  ZINC000132775118   -0.1300
     26 C26       -14.0181    0.5904   49.0038 C.3     1  ZINC000132775118   -0.1300
     27 C27       -14.6850    0.5523   50.4040 C.3     1  ZINC000132775118    0.1000
     28 C28       -12.5800   -1.9394   54.0402 C.3     1  ZINC000132775118   -0.1200
     29 C29       -11.9934   -3.2610   54.5321 C.3     1  ZINC000132775118    0.1200
     30 H30       -12.2180   -5.2261   57.9044 H       1  ZINC000132775118    0.0700
     31 H31       -11.1311   -4.5864   56.6483 H       1  ZINC000132775118    0.1200
     32 H32       -14.2341   -2.7861   56.8628 H       1  ZINC000132775118    0.1300
     33 H33       -14.1876   -3.6612   58.4087 H       1  ZINC000132775118    0.0700
     34 H34       -13.1044   -0.1398   59.7240 H       1  ZINC000132775118    0.4000
     35 H35       -10.8745   -0.2397   60.8501 H       1  ZINC000132775118    0.0800
     36 H36       -11.4190   -1.8659   61.3351 H       1  ZINC000132775118    0.0700
     37 H37        -8.8956   -1.2267   59.7377 H       1  ZINC000132775118    0.0700
     38 H38        -8.9482   -1.6913   61.4532 H       1  ZINC000132775118    0.0700
     39 H39        -8.4007   -3.6304   60.0047 H       1  ZINC000132775118    0.0700
     40 H40        -9.9488   -3.8651   60.8473 H       1  ZINC000132775118    0.0600
     41 H41        -9.6141   -2.8892   57.9729 H       1  ZINC000132775118    0.0800
     42 H42       -10.1405   -4.5185   58.4672 H       1  ZINC000132775118    0.0700
     43 H43       -13.6513   -4.9729   52.9716 H       1  ZINC000132775118    0.0800
     44 H44       -14.9094   -5.0514   54.2320 H       1  ZINC000132775118    0.0900
     45 H45       -15.3575   -3.2786   52.4975 H       1  ZINC000132775118    0.0800
     46 H46       -15.2072   -2.6223   54.1459 H       1  ZINC000132775118    0.0800
     47 H47       -12.9749   -2.7041   52.0652 H       1  ZINC000132775118    0.0900
     48 H48       -12.6989   -1.8485   50.0774 H       1  ZINC000132775118    0.0700
     49 H49       -14.3518   -2.5233   50.0403 H       1  ZINC000132775118    0.0700
     50 H50       -13.2085   -1.1307   47.9202 H       1  ZINC000132775118    0.0800
     51 H51       -14.9771   -1.2109   48.2115 H       1  ZINC000132775118    0.0800
     52 H52       -13.0028    0.9826   49.0615 H       1  ZINC000132775118    0.0800
     53 H53       -14.6195    1.1687   48.3023 H       1  ZINC000132775118    0.0900
     54 H54       -15.7696    0.5042   50.3064 H       1  ZINC000132775118    0.0700
     55 H55       -14.3941    1.4265   50.9865 H       1  ZINC000132775118    0.0800
     56 H56       -11.7744   -1.2806   53.7160 H       1  ZINC000132775118    0.0800
     57 H57       -13.1337   -1.4660   54.8510 H       1  ZINC000132775118    0.0800
     58 H58       -11.3992   -3.0857   55.4289 H       1  ZINC000132775118    0.1000
     59 H59       -11.3651   -3.6940   53.7537 H       1  ZINC000132775118    0.0700
@<TRIPOS>BOND
     1     1     2    2
     2     2     3    1
     3     2    17   am
     4     3     4    1
     5     3    30    1
     6     3    31    1
     7     4    15    1
     8     4     5    1
     9     5     6    1
    10     5    32    1
    11     5    33    1
    12     6     7    2
    13     6     8   am
    14     8     9    1
    15     8    34    1
    16     9    10    1
    17     9    15    1
    18     9    11    1
    19    11    12    1
    20    11    35    1
    21    11    36    1
    22    12    13    1
    23    12    37    1
    24    12    38    1
    25    13    14    1
    26    13    39    1
    27    13    40    1
    28    14    15    1
    29    14    41    1
    30    14    42    1
    31    15    16    1
    32    17    29    1
    33    17    18    1
    34    18    19    1
    35    18    43    1
    36    18    44    1
    37    19    20    1
    38    19    45    1
    39    19    46    1
    40    20    21    1
    41    20    28    1
    42    20    47    1
    43    21    22    2
    44    21    23   am
    45    23    27    1
    46    23    24    1
    47    24    25    1
    48    24    48    1
    49    24    49    1
    50    25    26    1
    51    25    50    1
    52    25    51    1
    53    26    27    1
    54    26    52    1
    55    26    53    1
    56    27    54    1
    57    27    55    1
    58    28    29    1
    59    28    56    1
    60    28    57    1
    61    29    58    1
    62    29    59    1
@<TRIPOS>SUBSTRUCTURE
     1 ZINC000132775118        1 TEMP              0 ****  ****    0 ROOT


##########                                Name:    ZINC000192150625
##########                DOCK_Rotatable_Bonds:                   5
##########                         Heavy_Atoms:                  28
##########                    Molecular_Weight:             377.443
##########                DOCK_Rotatable_Bonds:                   5
##########                       Formal_Charge:           0.0199997
##########                     HBond_Acceptors:                   6
##########                        HBond_Donors:                   1
##########                         Heavy_Atoms:                  28
##########                          Grid_Score:          -34.235741
##########                     Grid_vdw_energy:          -32.968231
##########                      Grid_es_energy:           -1.267508
##########           Internal_energy_repulsive:           14.698543

@<TRIPOS>MOLECULE
ZINC000192150625
 51 54 1 0 0
SMALL
USER_CHARGES


@<TRIPOS>ATOM
      1 C1        -14.0230    1.5610   49.9676 C.3     1  ZINC000192150625   -0.0800
      2 C2        -13.7578    0.4365   50.9352 C.2     1  ZINC000192150625    0.0400
      3 C3        -12.6977    0.3607   51.7509 C.2     1  ZINC000192150625   -0.1800
      4 C4        -11.5743    1.3581   51.8702 C.3     1  ZINC000192150625   -0.0800
      5 C5        -12.8504   -0.8893   52.5056 C.ar    1  ZINC000192150625   -0.1000
      6 C6        -12.0993   -1.5299   53.4890 C.ar    1  ZINC000192150625   -0.0700
      7 C7        -12.5392   -2.7361   54.0063 C.ar    1  ZINC000192150625    0.1200
      8 N8        -11.7920   -3.3864   54.9940 N.am    1  ZINC000192150625   -0.6400
      9 C9        -12.2340   -3.4101   56.2671 C.2     1  ZINC000192150625    0.5100
     10 O10       -13.2805   -2.8673   56.5564 O.2     1  ZINC000192150625   -0.4900
     11 C11       -11.4363   -4.1043   57.3217 C.2     1  ZINC000192150625    0.5100
     12 O12       -11.5144   -5.3088   57.4471 O.2     1  ZINC000192150625   -0.5200
     13 N13       -10.6297   -3.3930   58.1340 N.am    1  ZINC000192150625   -0.5800
     14 C14       -10.5292   -1.9335   57.9983 C.3     1  ZINC000192150625    0.0500
     15 C15       -10.8103   -1.2911   59.3603 C.3     1  ZINC000192150625   -0.1200
     16 C16        -9.8688   -1.8913   60.4070 C.3     1  ZINC000192150625   -0.0500
     17 C17       -10.1193   -1.2373   61.7414 C.ar    1  ZINC000192150625   -0.0300
     18 C18        -9.1195   -1.1745   62.6998 C.ar    1  ZINC000192150625   -0.1700
     19 C19        -9.3859   -0.5668   63.9122 C.ar    1  ZINC000192150625    0.1000
     20 N20       -10.5738   -0.0515   64.1618 N.ar    1  ZINC000192150625   -0.4900
     21 C21       -11.5482   -0.0930   63.2740 C.ar    1  ZINC000192150625    0.1000
     22 C22       -11.3534   -0.6791   62.0377 C.ar    1  ZINC000192150625   -0.1700
     23 C23       -10.1230   -3.3961   60.5209 C.3     1  ZINC000192150625   -0.1200
     24 C24        -9.8387   -4.0616   59.1761 C.3     1  ZINC000192150625    0.1100
     25 C25       -13.7254   -3.3037   53.5449 C.ar    1  ZINC000192150625   -0.1100
     26 C26       -14.4723   -2.6753   52.5731 C.ar    1  ZINC000192150625   -0.0800
     27 C27       -14.0462   -1.4641   52.0425 C.ar    1  ZINC000192150625    0.0500
     28 O28       -14.5539   -0.6328   51.1089 O.3     1  ZINC000192150625   -0.1900
     29 H29       -14.9549    1.3703   49.4354 H       1  ZINC000192150625    0.0800
     30 H30       -14.1027    2.5001   50.5150 H       1  ZINC000192150625    0.0900
     31 H31       -13.2029    1.6259   49.2524 H       1  ZINC000192150625    0.0900
     32 H32       -11.8274    2.1017   52.6260 H       1  ZINC000192150625    0.0700
     33 H33       -10.6593    0.8419   52.1604 H       1  ZINC000192150625    0.0700
     34 H34       -11.4239    1.8523   50.9103 H       1  ZINC000192150625    0.0700
     35 H35       -11.1801   -1.0884   53.8448 H       1  ZINC000192150625    0.1400
     36 H36       -10.9558   -3.8201   54.7629 H       1  ZINC000192150625    0.4300
     37 H37        -9.5256   -1.6654   57.6680 H       1  ZINC000192150625    0.0700
     38 H38       -11.2613   -1.5828   57.2708 H       1  ZINC000192150625    0.1600
     39 H39       -10.6450   -0.2156   59.2964 H       1  ZINC000192150625    0.0800
     40 H40       -11.8439   -1.4843   59.6473 H       1  ZINC000192150625    0.0700
     41 H41        -8.8352   -1.7195   60.1067 H       1  ZINC000192150625    0.0900
     42 H42        -8.1448   -1.5953   62.5016 H       1  ZINC000192150625    0.1300
     43 H43        -8.6124   -0.5138   64.6641 H       1  ZINC000192150625    0.1600
     44 H44       -12.5080    0.3395   63.5145 H       1  ZINC000192150625    0.1600
     45 H45       -12.1552   -0.7097   61.3147 H       1  ZINC000192150625    0.1300
     46 H46        -9.4684   -3.8189   61.2832 H       1  ZINC000192150625    0.0800
     47 H47       -11.1631   -3.5695   60.7971 H       1  ZINC000192150625    0.0700
     48 H48       -10.1127   -5.1155   59.2248 H       1  ZINC000192150625    0.1000
     49 H49        -8.7790   -3.9680   58.9388 H       1  ZINC000192150625    0.0800
     50 H50       -14.0620   -4.2453   53.9530 H       1  ZINC000192150625    0.1400
     51 H51       -15.3899   -3.1244   52.2232 H       1  ZINC000192150625    0.1400
@<TRIPOS>BOND
     1     1     2    1
     2     1    29    1
     3     1    30    1
     4     1    31    1
     5     2    28    1
     6     2     3    2
     7     3     4    1
     8     3     5    1
     9     4    32    1
    10     4    33    1
    11     4    34    1
    12     5    27   ar
    13     5     6   ar
    14     6     7   ar
    15     6    35    1
    16     7     8    1
    17     7    25   ar
    18     8     9   am
    19     8    36    1
    20     9    10    2
    21     9    11    1
    22    11    12    2
    23    11    13   am
    24    13    24    1
    25    13    14    1
    26    14    15    1
    27    14    37    1
    28    14    38    1
    29    15    16    1
    30    15    39    1
    31    15    40    1
    32    16    17    1
    33    16    23    1
    34    16    41    1
    35    17    22   ar
    36    17    18   ar
    37    18    19   ar
    38    18    42    1
    39    19    20   ar
    40    19    43    1
    41    20    21   ar
    42    21    22   ar
    43    21    44    1
    44    22    45    1
    45    23    24    1
    46    23    46    1
    47    23    47    1
    48    24    48    1
    49    24    49    1
    50    25    26   ar
    51    25    50    1
    52    26    27   ar
    53    26    51    1
    54    27    28    1
@<TRIPOS>SUBSTRUCTURE
     1 ZINC000192150625        1 TEMP              0 ****  ****    0 ROOT


##########                                Name:    ZINC001579482641
##########                DOCK_Rotatable_Bonds:                   5
##########                         Heavy_Atoms:                  26
##########                    Molecular_Weight:             355.359
##########                DOCK_Rotatable_Bonds:                   5
##########                       Formal_Charge:                0.05
##########                     HBond_Acceptors:                  11
##########                        HBond_Donors:                   1
##########                         Heavy_Atoms:                  26
##########                          Grid_Score:          -34.235680
##########                     Grid_vdw_energy:          -34.153748
##########                      Grid_es_energy:           -0.081930
##########           Internal_energy_repulsive:           16.338087

@<TRIPOS>MOLECULE
ZINC001579482641
 43 46 1 0 0
SMALL
USER_CHARGES


@<TRIPOS>ATOM
      1 C1         -7.8309   -0.0775   51.5276 C.3     1  ZINC001579482641    0.0300
      2 O2         -6.5163    0.1443   50.9521 O.3     1  ZINC001579482641   -0.3300
      3 C3         -5.9154    1.3168   51.2335 C.2     1  ZINC001579482641    0.5300
      4 O4         -6.4852    2.1423   51.9188 O.2     1  ZINC001579482641   -0.4900
      5 C5         -4.5635    1.5987   50.7085 C.ar    1  ZINC001579482641    0.0900
      6 C6         -3.6035    2.1674   51.5473 C.ar    1  ZINC001579482641   -0.0800
      7 C7         -2.3394    2.4294   51.0511 C.ar    1  ZINC001579482641   -0.1200
      8 C8         -2.0681    2.1138   49.7219 C.ar    1  ZINC001579482641    0.1100
      9 N9         -0.8127    2.3594   49.1826 N.3     1  ZINC001579482641   -0.4600
     10 C10        -0.4289    3.7839   49.3545 C.3     1  ZINC001579482641    0.0400
     11 C11         1.1129    3.7563   49.2041 C.3     1  ZINC001579482641   -0.1100
     12 C12         1.5048    2.4341   49.9028 C.3     1  ZINC001579482641   -0.0100
     13 H13         1.8147    2.6264   50.9299 H       1  ZINC001579482641    0.0900
     14 C14         2.6113    1.7490   49.1430 C.2     1  ZINC001579482641    0.1800
     15 N15         3.8252    1.5331   49.5713 N.2     1  ZINC001579482641   -0.2600
     16 N16         4.5028    0.9248   48.6632 N.2     1  ZINC001579482641   -0.2900
     17 C17         3.7520    0.7251   47.6144 C.2     1  ZINC001579482641    0.1500
     18 N18         2.5287    1.2379   47.8909 N.pl3   1  ZINC001579482641   -0.4800
     19 C19         1.3571    1.2459   47.0113 C.3     1  ZINC001579482641    0.0700
     20 C20         0.2274    1.5743   49.8821 C.3     1  ZINC001579482641    0.0600
     21 C21        -3.0823    1.5429   48.9342 C.ar    1  ZINC001579482641    0.2300
     22 C22        -2.8082    1.2014   47.5167 C.2     1  ZINC001579482641    0.2100
     23 N23        -2.0824    0.1930   47.0757 N.2     1  ZINC001579482641   -0.2600
     24 N24        -2.0862    0.2380   45.7878 N.pl3   1  ZINC001579482641   -0.2300
     25 N25        -2.7909    1.2425   45.3986 N.2     1  ZINC001579482641   -0.0500
     26 N26        -3.2552    1.8550   46.4345 N.2     1  ZINC001579482641   -0.2000
     27 N27        -4.2757    1.3029   49.4464 N.ar    1  ZINC001579482641   -0.4000
     28 H28        -8.5160    0.6943   51.1768 H       1  ZINC001579482641    0.0700
     29 H29        -8.2002   -1.0569   51.2232 H       1  ZINC001579482641    0.1100
     30 H30        -7.7632   -0.0365   52.6147 H       1  ZINC001579482641    0.0700
     31 H31        -3.8456    2.4009   52.5737 H       1  ZINC001579482641    0.1600
     32 H32        -1.5796    2.8693   51.6801 H       1  ZINC001579482641    0.1600
     33 H33        -0.8803    4.4005   48.5772 H       1  ZINC001579482641    0.1000
     34 H34        -0.7126    4.1420   50.3442 H       1  ZINC001579482641    0.0600
     35 H35         1.3975    3.7358   48.1521 H       1  ZINC001579482641    0.1000
     36 H36         1.5651    4.6090   49.7106 H       1  ZINC001579482641    0.0800
     37 H37         4.0495    0.2377   46.6976 H       1  ZINC001579482641    0.2200
     38 H38         0.7730    0.3405   47.1759 H       1  ZINC001579482641    0.0800
     39 H39         0.7434    2.1193   47.2316 H       1  ZINC001579482641    0.0900
     40 H40         1.6833    1.2840   45.9719 H       1  ZINC001579482641    0.0900
     41 H41        -0.0923    1.3597   50.9018 H       1  ZINC001579482641    0.0600
     42 H42         0.4144    0.6443   49.3453 H       1  ZINC001579482641    0.1000
     43 H43        -1.6292   -0.3868   45.2031 H       1  ZINC001579482641    0.4800
@<TRIPOS>BOND
     1     1     2    1
     2     1    28    1
     3     1    29    1
     4     1    30    1
     5     2     3    1
     6     3     4    2
     7     3     5    1
     8     5    27   ar
     9     5     6   ar
    10     6     7   ar
    11     6    31    1
    12     7     8   ar
    13     7    32    1
    14     8     9    1
    15     8    21   ar
    16     9    20    1
    17     9    10    1
    18    10    11    1
    19    10    33    1
    20    10    34    1
    21    11    12    1
    22    11    35    1
    23    11    36    1
    24    12    13    1
    25    12    14    1
    26    12    20    1
    27    14    18    1
    28    14    15    2
    29    15    16    1
    30    16    17    2
    31    17    18    1
    32    17    37    1
    33    18    19    1
    34    19    38    1
    35    19    39    1
    36    19    40    1
    37    20    41    1
    38    20    42    1
    39    21    22    1
    40    21    27   ar
    41    22    26    1
    42    22    23    2
    43    23    24    1
    44    24    25    1
    45    24    43    1
    46    25    26    2
@<TRIPOS>SUBSTRUCTURE
     1 ZINC001579482641        1 TEMP              0 ****  ****    0 ROOT


##########                                Name:    ZINC001143596311
##########                DOCK_Rotatable_Bonds:                   9
##########                         Heavy_Atoms:                  21
##########                    Molecular_Weight:             335.811
##########                DOCK_Rotatable_Bonds:                   9
##########                       Formal_Charge:          0.00999959
##########                     HBond_Acceptors:                   9
##########                        HBond_Donors:                   3
##########                         Heavy_Atoms:                  21
##########                          Grid_Score:          -34.234280
##########                     Grid_vdw_energy:          -31.044315
##########                      Grid_es_energy:           -3.189964
##########           Internal_energy_repulsive:           14.374377

@<TRIPOS>MOLECULE
ZINC001143596311
 39 39 1 0 0
SMALL
USER_CHARGES


@<TRIPOS>ATOM
      1 C1        -14.9313   -5.5338   56.9573 C.3     1  ZINC001143596311    0.0400
      2 O2        -13.6797   -5.2813   57.5992 O.3     1  ZINC001143596311   -0.2600
      3 N3        -12.5679   -5.0686   56.6723 N.3     1  ZINC001143596311   -0.3700
      4 C4        -12.7282   -3.8056   55.9392 C.3     1  ZINC001143596311    0.0000
      5 C5        -11.2798   -5.1082   57.3774 C.3     1  ZINC001143596311    0.0400
      6 C6        -11.1958   -3.9322   58.3525 C.3     1  ZINC001143596311   -0.1300
      7 C7        -10.0188   -4.1441   59.3068 C.3     1  ZINC001143596311    0.1200
      8 N8        -10.1409   -3.2282   60.4437 N.am    1  ZINC001143596311   -0.7200
      9 C9         -9.7220   -1.9524   60.3292 C.2     1  ZINC001143596311    0.5600
     10 O10        -9.2443   -1.5611   59.2822 O.2     1  ZINC001143596311   -0.5200
     11 C11        -9.8436   -1.0289   61.4766 C.ar    1  ZINC001143596311   -0.1500
     12 C12        -9.1824   -1.3082   62.6740 C.ar    1  ZINC001143596311   -0.0200
     13 C13        -9.2997   -0.4427   63.7413 C.ar    1  ZINC001143596311   -0.1300
     14 C14       -10.0717    0.7014   63.6270 C.ar    1  ZINC001143596311    0.0700
     15 Cl15      -10.2145    1.7862   64.9749 Cl      1  ZINC001143596311   -0.0200
     16 C16       -10.7301    0.9839   62.4413 C.ar    1  ZINC001143596311   -0.6800
     17 S17       -11.7096    2.4423   62.3053 S.o2    1  ZINC001143596311    2.7000
     18 N18       -10.7568    3.7171   62.7628 N.am    1  ZINC001143596311   -1.2500
     19 O19       -11.9775    2.6180   60.9210 O.2     1  ZINC001143596311   -0.9400
     20 O20       -12.7313    2.3325   63.2869 O.2     1  ZINC001143596311   -0.9500
     21 C21       -10.6155    0.1293   61.3655 C.ar    1  ZINC001143596311    0.0500
     22 H22       -15.1951   -4.6836   56.3283 H       1  ZINC001143596311    0.0400
     23 H23       -14.8497   -6.4297   56.3417 H       1  ZINC001143596311    0.0500
     24 H24       -15.7036   -5.6808   57.7123 H       1  ZINC001143596311    0.0900
     25 H25       -12.7576   -2.9764   56.6460 H       1  ZINC001143596311    0.0400
     26 H26       -11.8882   -3.6723   55.2574 H       1  ZINC001143596311    0.0900
     27 H27       -13.6575   -3.8313   55.3702 H       1  ZINC001143596311    0.0800
     28 H28       -11.1963   -6.0444   57.9293 H       1  ZINC001143596311    0.0500
     29 H29       -10.4674   -5.0392   56.6540 H       1  ZINC001143596311    0.0900
     30 H30       -11.0491   -3.0073   57.7946 H       1  ZINC001143596311    0.0800
     31 H31       -12.1209   -3.8682   58.9252 H       1  ZINC001143596311    0.0800
     32 H32       -10.0236   -5.1729   59.6669 H       1  ZINC001143596311    0.0800
     33 H33        -9.0846   -3.9478   58.7808 H       1  ZINC001143596311    0.0800
     34 H34       -10.5232   -3.5401   61.2789 H       1  ZINC001143596311    0.4000
     35 H35        -8.5807   -2.2004   62.7645 H       1  ZINC001143596311    0.1500
     36 H36        -8.7887   -0.6576   64.6681 H       1  ZINC001143596311    0.1600
     37 H37        -9.9384    3.9092   62.2787 H       1  ZINC001143596311    0.4200
     38 H38       -11.0170    4.2718   63.5148 H       1  ZINC001143596311    0.4200
     39 H39       -11.1293    0.3506   60.4416 H       1  ZINC001143596311    0.1700
@<TRIPOS>BOND
     1     1     2    1
     2     1    22    1
     3     1    23    1
     4     1    24    1
     5     2     3    1
     6     3     4    1
     7     3     5    1
     8     4    25    1
     9     4    26    1
    10     4    27    1
    11     5     6    1
    12     5    28    1
    13     5    29    1
    14     6     7    1
    15     6    30    1
    16     6    31    1
    17     7     8    1
    18     7    32    1
    19     7    33    1
    20     8     9   am
    21     8    34    1
    22     9    10    2
    23     9    11    1
    24    11    21   ar
    25    11    12   ar
    26    12    13   ar
    27    12    35    1
    28    13    14   ar
    29    13    36    1
    30    14    15    1
    31    14    16   ar
    32    16    17    1
    33    16    21   ar
    34    17    18   am
    35    17    19    2
    36    17    20    2
    37    18    37    1
    38    18    38    1
    39    21    39    1
@<TRIPOS>SUBSTRUCTURE
     1 ZINC001143596311        1 TEMP              0 ****  ****    0 ROOT


##########                                Name:    ZINC000245764166
##########                DOCK_Rotatable_Bonds:                   8
##########                         Heavy_Atoms:                  26
##########                    Molecular_Weight:             359.512
##########                DOCK_Rotatable_Bonds:                   8
##########                       Formal_Charge:          -0.0100008
##########                     HBond_Acceptors:                   5
##########                        HBond_Donors:                   2
##########                         Heavy_Atoms:                  26
##########                          Grid_Score:          -34.225677
##########                     Grid_vdw_energy:          -32.576836
##########                      Grid_es_energy:           -1.648840
##########           Internal_energy_repulsive:           33.338322

@<TRIPOS>MOLECULE
ZINC000245764166
 59 61 1 0 0
SMALL
USER_CHARGES


@<TRIPOS>ATOM
      1 C1         -8.6500    1.5027   53.5494 C.3     1  ZINC000245764166    0.0200
      2 N2         -8.0202    2.4572   54.4714 N.3     1  ZINC000245764166   -0.5300
      3 C3         -7.4067    3.5719   53.7371 C.3     1  ZINC000245764166    0.0600
      4 C4         -6.2935    3.0479   52.8669 C.ar    1  ZINC000245764166   -0.0800
      5 C5         -4.9925    3.0480   53.3343 C.ar    1  ZINC000245764166   -0.1000
      6 C6         -3.9713    2.5674   52.5362 C.ar    1  ZINC000245764166   -0.1200
      7 C7         -4.2511    2.0862   51.2709 C.ar    1  ZINC000245764166   -0.1200
      8 C8         -5.5522    2.0852   50.8038 C.ar    1  ZINC000245764166   -0.1200
      9 C9         -6.5740    2.5619   51.6037 C.ar    1  ZINC000245764166   -0.1200
     10 C10        -8.9873    2.9484   55.4621 C.3     1  ZINC000245764166    0.0500
     11 C11        -8.3252    2.9965   56.8407 C.3     1  ZINC000245764166    0.1900
     12 C12        -6.9001    2.4487   56.7415 C.3     1  ZINC000245764166   -0.1600
     13 C13        -8.2821    4.4435   57.3356 C.3     1  ZINC000245764166   -0.1500
     14 N14        -9.0973    2.1813   57.7818 N.am    1  ZINC000245764166   -0.7400
     15 C15        -9.3226    0.8789   57.5179 C.2     1  ZINC000245764166    0.7000
     16 O16        -8.8863    0.3809   56.4981 O.2     1  ZINC000245764166   -0.5800
     17 N17       -10.0314    0.1286   58.3845 N.am    1  ZINC000245764166   -0.7500
     18 C18       -10.2778   -1.2866   58.0968 C.3     1  ZINC000245764166    0.1800
     19 H19        -9.3612   -1.7410   57.7206 H       1  ZINC000245764166    0.0900
     20 C20       -11.3681   -1.4009   57.0344 C.3     1  ZINC000245764166   -0.1300
     21 C21       -11.5721   -2.8828   56.7006 C.3     1  ZINC000245764166   -0.1100
     22 C22       -12.0739   -3.5945   57.9569 C.3     1  ZINC000245764166   -0.1100
     23 C23       -11.0918   -3.4577   59.0965 C.3     1  ZINC000245764166    0.0900
     24 H24       -11.5365   -3.8740   60.0003 H       1  ZINC000245764166    0.0600
     25 O25        -9.8440   -4.1182   58.8451 O.3     1  ZINC000245764166   -0.3600
     26 C26        -8.9147   -3.6051   59.8202 C.3     1  ZINC000245764166    0.0500
     27 C27        -9.4038   -2.1996   60.2250 C.3     1  ZINC000245764166   -0.1500
     28 C28       -10.6998   -1.9964   59.3850 C.3     1  ZINC000245764166   -0.1300
     29 H29       -11.4734   -1.4572   59.9317 H       1  ZINC000245764166    0.1000
     30 H30        -7.9080    1.1418   52.8372 H       1  ZINC000245764166    0.0800
     31 H31        -9.0501    0.6612   54.1150 H       1  ZINC000245764166    0.0700
     32 H32        -9.4594    1.9968   53.0117 H       1  ZINC000245764166    0.0200
     33 H33        -8.1593    4.0539   53.1132 H       1  ZINC000245764166    0.0400
     34 H34        -7.0041    4.2958   54.4455 H       1  ZINC000245764166    0.1100
     35 H35        -4.7739    3.4239   54.3229 H       1  ZINC000245764166    0.1200
     36 H36        -2.9547    2.5682   52.9010 H       1  ZINC000245764166    0.1200
     37 H37        -3.4532    1.7114   50.6470 H       1  ZINC000245764166    0.1200
     38 H38        -5.7708    1.7096   49.8152 H       1  ZINC000245764166    0.1200
     39 H39        -7.5905    2.5611   51.2388 H       1  ZINC000245764166    0.1200
     40 H40        -9.3176    3.9488   55.1826 H       1  ZINC000245764166    0.0400
     41 H41        -9.8462    2.2781   55.4949 H       1  ZINC000245764166    0.1000
     42 H42        -6.3257    3.0552   56.0413 H       1  ZINC000245764166    0.0700
     43 H43        -6.4285    2.4829   57.7236 H       1  ZINC000245764166    0.0800
     44 H44        -6.9308    1.4177   56.3888 H       1  ZINC000245764166    0.0500
     45 H45        -9.2972    4.7935   57.5238 H       1  ZINC000245764166    0.0600
     46 H46        -7.7032    4.4950   58.2578 H       1  ZINC000245764166    0.0800
     47 H47        -7.8153    5.0729   56.5780 H       1  ZINC000245764166    0.0600
     48 H48        -9.4463    2.5788   58.5949 H       1  ZINC000245764166    0.3900
     49 H49       -10.3784    0.5255   59.1987 H       1  ZINC000245764166    0.3900
     50 H50       -12.2980   -0.9809   57.4178 H       1  ZINC000245764166    0.0600
     51 H51       -11.0627   -0.8625   56.1373 H       1  ZINC000245764166    0.0700
     52 H52       -12.3090   -2.9816   55.9035 H       1  ZINC000245764166    0.0700
     53 H53       -10.6261   -3.3214   56.3831 H       1  ZINC000245764166    0.0700
     54 H54       -13.0286   -3.1613   58.2549 H       1  ZINC000245764166    0.0800
     55 H55       -12.2172   -4.6520   57.7346 H       1  ZINC000245764166    0.0700
     56 H56        -8.8965   -4.2569   60.6936 H       1  ZINC000245764166    0.0600
     57 H57        -7.9182   -3.5393   59.3836 H       1  ZINC000245764166    0.0800
     58 H58        -9.6301   -2.1658   61.2907 H       1  ZINC000245764166    0.0800
     59 H59        -8.6591   -1.4466   59.9672 H       1  ZINC000245764166    0.0800
@<TRIPOS>BOND
     1     1     2    1
     2     1    30    1
     3     1    31    1
     4     1    32    1
     5     2     3    1
     6     2    10    1
     7     3     4    1
     8     3    33    1
     9     3    34    1
    10     4     9   ar
    11     4     5   ar
    12     5     6   ar
    13     5    35    1
    14     6     7   ar
    15     6    36    1
    16     7     8   ar
    17     7    37    1
    18     8     9   ar
    19     8    38    1
    20     9    39    1
    21    10    11    1
    22    10    40    1
    23    10    41    1
    24    11    12    1
    25    11    13    1
    26    11    14    1
    27    12    42    1
    28    12    43    1
    29    12    44    1
    30    13    45    1
    31    13    46    1
    32    13    47    1
    33    14    15   am
    34    14    48    1
    35    15    16    2
    36    15    17   am
    37    17    18    1
    38    17    49    1
    39    18    19    1
    40    18    28    1
    41    18    20    1
    42    20    21    1
    43    20    50    1
    44    20    51    1
    45    21    22    1
    46    21    52    1
    47    21    53    1
    48    22    23    1
    49    22    54    1
    50    22    55    1
    51    23    24    1
    52    23    28    1
    53    23    25    1
    54    25    26    1
    55    26    27    1
    56    26    56    1
    57    26    57    1
    58    27    28    1
    59    27    58    1
    60    27    59    1
    61    28    29    1
@<TRIPOS>SUBSTRUCTURE
     1 ZINC000245764166        1 TEMP              0 ****  ****    0 ROOT


##########                                Name:    ZINC001371344729
##########                DOCK_Rotatable_Bonds:                   9
##########                         Heavy_Atoms:                  24
##########                    Molecular_Weight:             332.399
##########                DOCK_Rotatable_Bonds:                   9
##########                       Formal_Charge:          0.00999983
##########                     HBond_Acceptors:                   6
##########                        HBond_Donors:                   1
##########                         Heavy_Atoms:                  24
##########                          Grid_Score:          -34.213634
##########                     Grid_vdw_energy:          -33.400955
##########                      Grid_es_energy:           -0.812681
##########           Internal_energy_repulsive:           20.611544

@<TRIPOS>MOLECULE
ZINC001371344729
 48 49 1 0 0
SMALL
USER_CHARGES


@<TRIPOS>ATOM
      1 C1        -14.6635   -6.0443   56.9608 C.3     1  ZINC001371344729   -0.1800
      2 C2        -13.2505   -5.4698   56.8423 C.3     1  ZINC001371344729    0.1000
      3 N3        -13.3245   -4.0114   56.7257 N.am    1  ZINC001371344729   -0.6100
      4 C4        -13.2519   -3.4277   55.5129 C.2     1  ZINC001371344729    0.5100
      5 O5        -13.3146   -2.2204   55.4162 O.2     1  ZINC001371344729   -0.5200
      6 C6        -13.0928   -4.2754   54.2771 C.3     1  ZINC001371344729   -0.0600
      7 C7        -13.5157   -3.4833   53.0668 C.2     1  ZINC001371344729   -0.0100
      8 C8        -12.7002   -2.7716   52.2681 C.2     1  ZINC001371344729   -0.1600
      9 C9        -11.2080   -2.6197   52.4146 C.3     1  ZINC001371344729   -0.0800
     10 C10       -13.5124   -2.1886   51.2685 C.2     1  ZINC001371344729   -0.2100
     11 C11       -14.7743   -2.5866   51.5106 C.2     1  ZINC001371344729   -0.0300
     12 O12       -14.7708   -3.3676   52.6031 O.3     1  ZINC001371344729   -0.1700
     13 C13       -13.4774   -3.1872   57.9272 C.3     1  ZINC001371344729    0.1200
     14 H14       -13.3965   -3.8175   58.8127 H       1  ZINC001371344729    0.1100
     15 C15       -14.8481   -2.5076   57.9083 C.3     1  ZINC001371344729   -0.1600
     16 C16       -12.3801   -2.1215   57.9577 C.3     1  ZINC001371344729    0.1100
     17 N17       -11.7764   -2.0801   59.2919 N.am    1  ZINC001371344729   -0.7200
     18 C18       -10.7119   -1.2873   59.5257 C.2     1  ZINC001371344729    0.5900
     19 O19       -10.2532   -0.6053   58.6292 O.2     1  ZINC001371344729   -0.5300
     20 C20       -10.1036   -1.2471   60.8674 C.2     1  ZINC001371344729   -0.2300
     21 C21        -9.3232   -2.2035   61.4481 C.2     1  ZINC001371344729    0.0200
     22 O22        -8.9735   -1.7800   62.6666 O.3     1  ZINC001371344729   -0.1700
     23 C23        -9.5018   -0.5734   62.9242 C.2     1  ZINC001371344729   -0.0100
     24 C24        -9.3213    0.2046   64.2021 C.3     1  ZINC001371344729   -0.0800
     25 C25       -10.2163   -0.1705   61.8623 C.2     1  ZINC001371344729   -0.1600
     26 H26       -15.2390   -5.7795   56.0738 H       1  ZINC001371344729    0.0700
     27 H27       -14.6085   -7.1295   57.0476 H       1  ZINC001371344729    0.0700
     28 H28       -15.1499   -5.6333   57.8455 H       1  ZINC001371344729    0.0600
     29 H29       -12.7642   -5.8808   55.9576 H       1  ZINC001371344729    0.0900
     30 H30       -12.6751   -5.7347   57.7293 H       1  ZINC001371344729    0.0800
     31 H31       -13.7156   -5.1657   54.3644 H       1  ZINC001371344729    0.1100
     32 H32       -12.0491   -4.5712   54.1712 H       1  ZINC001371344729    0.1200
     33 H33       -10.7058   -3.4107   51.8577 H       1  ZINC001371344729    0.0700
     34 H34       -10.9016   -1.6494   52.0237 H       1  ZINC001371344729    0.0700
     35 H35       -10.9374   -2.6889   53.4682 H       1  ZINC001371344729    0.0600
     36 H36       -13.1825   -1.5488   50.4633 H       1  ZINC001371344729    0.1500
     37 H37       -15.6437   -2.3189   50.9283 H       1  ZINC001371344729    0.2000
     38 H38       -15.6298   -3.2669   57.8866 H       1  ZINC001371344729    0.0700
     39 H39       -14.9619   -1.8944   58.8022 H       1  ZINC001371344729    0.0700
     40 H40       -14.9289   -1.8774   57.0226 H       1  ZINC001371344729    0.0700
     41 H41       -11.6154   -2.3662   57.2204 H       1  ZINC001371344729    0.0800
     42 H42       -12.8120   -1.1485   57.7239 H       1  ZINC001371344729    0.0800
     43 H43       -12.1430   -2.6232   60.0071 H       1  ZINC001371344729    0.4000
     44 H44        -9.0352   -3.1424   60.9987 H       1  ZINC001371344729    0.2100
     45 H45       -10.1144   -0.0577   64.9024 H       1  ZINC001371344729    0.0800
     46 H46        -8.3537   -0.0377   64.6415 H       1  ZINC001371344729    0.0800
     47 H47        -9.3654    1.2722   63.9868 H       1  ZINC001371344729    0.0900
     48 H48       -10.7624    0.7556   61.7594 H       1  ZINC001371344729    0.1600
@<TRIPOS>BOND
     1     1     2    1
     2     1    26    1
     3     1    27    1
     4     1    28    1
     5     2     3    1
     6     2    29    1
     7     2    30    1
     8     3     4   am
     9     3    13    1
    10     4     5    2
    11     4     6    1
    12     6     7    1
    13     6    31    1
    14     6    32    1
    15     7    12    1
    16     7     8    2
    17     8     9    1
    18     8    10    1
    19     9    33    1
    20     9    34    1
    21     9    35    1
    22    10    11    2
    23    10    36    1
    24    11    12    1
    25    11    37    1
    26    13    14    1
    27    13    15    1
    28    13    16    1
    29    15    38    1
    30    15    39    1
    31    15    40    1
    32    16    17    1
    33    16    41    1
    34    16    42    1
    35    17    18   am
    36    17    43    1
    37    18    19    2
    38    18    20    1
    39    20    25    1
    40    20    21    2
    41    21    22    1
    42    21    44    1
    43    22    23    1
    44    23    24    1
    45    23    25    2
    46    24    45    1
    47    24    46    1
    48    24    47    1
    49    25    48    1
@<TRIPOS>SUBSTRUCTURE
     1 ZINC001371344729        1 TEMP              0 ****  ****    0 ROOT


##########                                Name:    ZINC000989658617
##########                DOCK_Rotatable_Bonds:                   6
##########                         Heavy_Atoms:                  24
##########                    Molecular_Weight:             334.418
##########                DOCK_Rotatable_Bonds:                   6
##########                       Formal_Charge:          -0.0100001
##########                     HBond_Acceptors:                   7
##########                        HBond_Donors:                   2
##########                         Heavy_Atoms:                  24
##########                          Grid_Score:          -34.207188
##########                     Grid_vdw_energy:          -33.325455
##########                      Grid_es_energy:           -0.881733
##########           Internal_energy_repulsive:            9.251690

@<TRIPOS>MOLECULE
ZINC000989658617
 50 52 1 0 0
SMALL
USER_CHARGES


@<TRIPOS>ATOM
      1 C1        -14.3912   -1.0616   48.6553 C.3     1  ZINC000989658617    0.0300
      2 O2        -14.8074   -0.7068   49.9756 O.3     1  ZINC000989658617   -0.3700
      3 C3        -14.9504   -1.8208   50.8591 C.3     1  ZINC000989658617    0.0500
      4 C4        -13.6286   -2.1074   51.5239 C.2     1  ZINC000989658617    0.5300
      5 O5        -12.6012   -1.6838   51.0383 O.2     1  ZINC000989658617   -0.5100
      6 N6        -13.5885   -2.8344   52.6580 N.am    1  ZINC000989658617   -0.6200
      7 C7        -14.7554   -3.4078   53.3528 C.3     1  ZINC000989658617    0.1000
      8 C8        -14.2980   -3.5766   54.8232 C.3     1  ZINC000989658617   -0.1500
      9 C9        -12.8164   -4.0001   54.6418 C.3     1  ZINC000989658617    0.1400
     10 H10       -12.7422   -5.0699   54.4468 H       1  ZINC000989658617    0.1100
     11 N11       -12.0248   -3.6336   55.8188 N.am    1  ZINC000989658617   -0.7100
     12 C12       -11.9796   -4.4582   56.8839 C.2     1  ZINC000989658617    0.6100
     13 O13       -12.5968   -5.5054   56.8685 O.2     1  ZINC000989658617   -0.5200
     14 C14       -11.1800   -4.0896   58.0699 C.2     1  ZINC000989658617   -0.0100
     15 N15       -10.2166   -4.8041   58.6260 N.2     1  ZINC000989658617   -0.2600
     16 N16        -9.7326   -4.1804   59.6443 N.pl3   1  ZINC000989658617   -0.3700
     17 C17       -10.3644   -3.0065   59.8078 C.2     1  ZINC000989658617    0.0100
     18 C18       -11.2910   -2.9088   58.8230 C.2     1  ZINC000989658617   -0.1400
     19 C19       -12.2253   -1.7444   58.6413 C.3     1  ZINC000989658617   -0.0400
     20 C20       -12.2360   -0.9283   59.9410 C.3     1  ZINC000989658617   -0.0900
     21 H21       -12.7501   -1.4919   60.7196 H       1  ZINC000989658617    0.0700
     22 C22       -12.9644    0.3963   59.7053 C.3     1  ZINC000989658617   -0.1500
     23 C23       -10.7965   -0.6475   60.3804 C.3     1  ZINC000989658617   -0.1100
     24 C24       -10.1366   -1.9470   60.8552 C.3     1  ZINC000989658617   -0.0500
     25 C25       -12.3730   -3.1925   53.4037 C.3     1  ZINC000989658617    0.1300
     26 H26       -11.8564   -2.2856   53.7181 H       1  ZINC000989658617    0.0800
     27 C27       -11.4470   -4.0431   52.5320 C.3     1  ZINC000989658617   -0.1600
     28 H28       -13.4238   -1.5618   48.7015 H       1  ZINC000989658617    0.0500
     29 H29       -15.1262   -1.7326   48.2107 H       1  ZINC000989658617    0.0400
     30 H30       -14.3061   -0.1613   48.0468 H       1  ZINC000989658617    0.0900
     31 H31       -15.6965   -1.5884   51.6189 H       1  ZINC000989658617    0.0800
     32 H32       -15.2692   -2.6955   50.2922 H       1  ZINC000989658617    0.0800
     33 H33       -15.6040   -2.7260   53.2954 H       1  ZINC000989658617    0.0800
     34 H34       -15.0154   -4.3751   52.9230 H       1  ZINC000989658617    0.0800
     35 H35       -14.3714   -2.6341   55.3658 H       1  ZINC000989658617    0.0800
     36 H36       -14.8696   -4.3588   55.3229 H       1  ZINC000989658617    0.1000
     37 H37       -11.5332   -2.7975   55.8316 H       1  ZINC000989658617    0.4100
     38 H38        -9.0169   -4.5103   60.2098 H       1  ZINC000989658617    0.4500
     39 H39       -11.8782   -1.1199   57.8181 H       1  ZINC000989658617    0.0800
     40 H40       -13.2300   -2.1092   58.4282 H       1  ZINC000989658617    0.0800
     41 H41       -13.9895    0.1968   59.3930 H       1  ZINC000989658617    0.0600
     42 H42       -12.9721    0.9761   60.6283 H       1  ZINC000989658617    0.0600
     43 H43       -12.4506    0.9600   58.9265 H       1  ZINC000989658617    0.0600
     44 H44       -10.2325   -0.2441   59.5395 H       1  ZINC000989658617    0.0700
     45 H45       -10.8004    0.0769   61.1949 H       1  ZINC000989658617    0.0800
     46 H46       -10.5862   -2.2647   61.7959 H       1  ZINC000989658617    0.0800
     47 H47        -9.0675   -1.7865   60.9942 H       1  ZINC000989658617    0.0800
     48 H48       -11.9758   -4.9389   52.2066 H       1  ZINC000989658617    0.0600
     49 H49       -11.1381   -3.4666   51.6600 H       1  ZINC000989658617    0.0700
     50 H50       -10.5673   -4.3296   53.1083 H       1  ZINC000989658617    0.0700
@<TRIPOS>BOND
     1     1     2    1
     2     1    28    1
     3     1    29    1
     4     1    30    1
     5     2     3    1
     6     3     4    1
     7     3    31    1
     8     3    32    1
     9     4     5    2
    10     4     6   am
    11     6    25    1
    12     6     7    1
    13     7     8    1
    14     7    33    1
    15     7    34    1
    16     8     9    1
    17     8    35    1
    18     8    36    1
    19     9    10    1
    20     9    11    1
    21     9    25    1
    22    11    12   am
    23    11    37    1
    24    12    13    2
    25    12    14    1
    26    14    18    1
    27    14    15    2
    28    15    16    1
    29    16    17    1
    30    16    38    1
    31    17    24    1
    32    17    18    2
    33    18    19    1
    34    19    20    1
    35    19    39    1
    36    19    40    1
    37    20    21    1
    38    20    22    1
    39    20    23    1
    40    22    41    1
    41    22    42    1
    42    22    43    1
    43    23    24    1
    44    23    44    1
    45    23    45    1
    46    24    46    1
    47    24    47    1
    48    25    26    1
    49    25    27    1
    50    27    48    1
    51    27    49    1
    52    27    50    1
@<TRIPOS>SUBSTRUCTURE
     1 ZINC000989658617        1 TEMP              0 ****  ****    0 ROOT


##########                                Name:    ZINC000013551438
##########                DOCK_Rotatable_Bonds:                   5
##########                         Heavy_Atoms:                  27
##########                    Molecular_Weight:             377.467
##########                DOCK_Rotatable_Bonds:                   5
##########                       Formal_Charge:          -0.0300005
##########                     HBond_Acceptors:                   6
##########                        HBond_Donors:                   1
##########                         Heavy_Atoms:                  27
##########                          Grid_Score:          -34.192459
##########                     Grid_vdw_energy:          -33.719532
##########                      Grid_es_energy:           -0.472927
##########           Internal_energy_repulsive:           13.852029

@<TRIPOS>MOLECULE
ZINC000013551438
 46 49 1 0 0
SMALL
USER_CHARGES


@<TRIPOS>ATOM
      1 C1         -9.1747   -3.8200   59.8518 C.3     1  <0>         0.0300
      2 O2        -10.0074   -2.6628   59.9495 O.3     1  <0>        -0.3200
      3 C3        -11.2498   -2.7483   59.4030 C.ar    1  <0>         0.1000
      4 C4        -12.3641   -2.8678   60.2287 C.ar    1  <0>        -0.1800
      5 C5        -13.6289   -2.9556   59.6910 C.ar    1  <0>        -0.0900
      6 C6        -13.8018   -2.9250   58.3110 C.ar    1  <0>         0.0700
      7 C7        -12.6781   -2.8039   57.4758 C.ar    1  <0>        -0.0400
      8 C8        -11.4021   -2.7106   58.0305 C.ar    1  <0>        -0.1100
      9 C9        -13.1931   -2.8029   56.0974 C.2     1  <0>        -0.1200
     10 C10       -12.3919   -2.6964   54.8534 C.2     1  <0>         0.1700
     11 C11       -12.4148   -3.6324   53.8859 C.2     1  <0>        -0.3000
     12 S12       -11.3280   -3.1140   52.6003 S.3     1  <0>         0.2500
     13 C13       -10.9453   -1.6965   53.4750 C.2     1  <0>         0.2400
     14 N14       -10.0670   -0.7118   53.0428 N.am    1  <0>        -0.6200
     15 C15        -9.0857   -1.0191   52.1717 C.2     1  <0>         0.5600
     16 O16        -8.9704   -2.1583   51.7632 O.2     1  <0>        -0.5000
     17 C17        -8.1498    0.0287   51.7130 C.ar    1  <0>        -0.1400
     18 C18        -8.4147    1.3724   51.9832 C.ar    1  <0>        -0.0800
     19 C19        -7.5367    2.3455   51.5526 C.ar    1  <0>        -0.1300
     20 C20        -6.3957    1.9920   50.8544 C.ar    1  <0>        -0.0800
     21 C21        -6.1273    0.6621   50.5827 C.ar    1  <0>        -0.1300
     22 C22        -6.9940   -0.3214   51.0126 C.ar    1  <0>        -0.0500
     23 N23       -11.5948   -1.6675   54.5949 N.2     1  <0>        -0.5000
     24 C24       -14.5397   -2.9186   56.1836 C.2     1  <0>         0.1300
     25 C25       -15.4834   -2.9608   55.0094 C.3     1  <0>        -0.0900
     26 N26       -14.9139   -2.9922   57.4973 N.pl3   1  <0>        -0.4800
     27 C27       -16.2939   -3.1241   57.9710 C.3     1  <0>         0.0800
     28 H28        -9.0164   -4.0662   58.8018 H       1  <0>         0.0500
     29 H29        -8.2144   -3.6176   60.3263 H       1  <0>         0.1000
     30 H30        -9.6580   -4.6587   60.3528 H       1  <0>         0.0500
     31 H31       -12.2354   -2.8924   61.3008 H       1  <0>         0.1300
     32 H32       -14.4866   -3.0484   60.3407 H       1  <0>         0.1200
     33 H33       -10.5371   -2.6175   57.3905 H       1  <0>         0.1300
     34 H34       -12.9973   -4.5417   53.8963 H       1  <0>         0.1800
     35 H35       -10.1598    0.1975   53.3678 H       1  <0>         0.4200
     36 H36        -9.3051    1.6496   52.5278 H       1  <0>         0.1300
     37 H37        -7.7406    3.3854   51.7606 H       1  <0>         0.1300
     38 H38        -5.7116    2.7577   50.5195 H       1  <0>         0.1300
     39 H39        -5.2351    0.3930   50.0369 H       1  <0>         0.1300
     40 H40        -6.7832   -1.3591   50.8003 H       1  <0>         0.1400
     41 H41       -15.6957   -3.9982   54.7510 H       1  <0>         0.0800
     42 H42       -16.4123   -2.4543   55.2715 H       1  <0>         0.0700
     43 H43       -15.0248   -2.4604   54.1566 H       1  <0>         0.0800
     44 H44       -16.5496   -4.1803   58.0557 H       1  <0>         0.0700
     45 H45       -16.3904   -2.6475   58.9465 H       1  <0>         0.0800
     46 H46       -16.9686   -2.6427   57.2630 H       1  <0>         0.0800
@<TRIPOS>BOND
     1     1     2    1
     2     1    28    1
     3     1    29    1
     4     1    30    1
     5     2     3    1
     6     3     8   ar
     7     3     4   ar
     8     4     5   ar
     9     4    31    1
    10     5     6   ar
    11     5    32    1
    12     6    26    1
    13     6     7   ar
    14     7     8   ar
    15     7     9    1
    16     8    33    1
    17     9    10    1
    18     9    24    2
    19    10    23    1
    20    10    11    2
    21    11    12    1
    22    11    34    1
    23    12    13    1
    24    13    14    1
    25    13    23    2
    26    14    15   am
    27    14    35    1
    28    15    16    2
    29    15    17    1
    30    17    22   ar
    31    17    18   ar
    32    18    19   ar
    33    18    36    1
    34    19    20   ar
    35    19    37    1
    36    20    21   ar
    37    20    38    1
    38    21    22   ar
    39    21    39    1
    40    22    40    1
    41    24    25    1
    42    24    26    1
    43    25    41    1
    44    25    42    1
    45    25    43    1
    46    26    27    1
    47    27    44    1
    48    27    45    1
    49    27    46    1
@<TRIPOS>SUBSTRUCTURE
     1 <0>         1 TEMP              0 ****  ****    0 ROOT


##########                                Name:    ZINC000550952205
##########                DOCK_Rotatable_Bonds:                   7
##########                         Heavy_Atoms:                  28
##########                    Molecular_Weight:             407.484
##########                DOCK_Rotatable_Bonds:                   7
##########                       Formal_Charge:        -2.68221e-07
##########                     HBond_Acceptors:                   8
##########                        HBond_Donors:                   2
##########                         Heavy_Atoms:                  28
##########                          Grid_Score:          -34.184296
##########                     Grid_vdw_energy:          -31.630594
##########                      Grid_es_energy:           -2.553700
##########           Internal_energy_repulsive:            4.575707

@<TRIPOS>MOLECULE
ZINC000550952205
 51 54 1 0 0
SMALL
USER_CHARGES


@<TRIPOS>ATOM
      1 O1         -6.7640    0.1722   66.9158 O.2     1  ZINC000550952205   -0.5100
      2 C2         -7.1013    0.6654   65.8595 C.2     1  ZINC000550952205    0.5100
      3 N3         -6.3661    1.6534   65.3119 N.am    1  ZINC000550952205   -0.7000
      4 C4         -5.1629    2.1358   65.9946 C.3     1  ZINC000550952205    0.1200
      5 C5         -4.1861    2.7062   64.9645 C.3     1  ZINC000550952205   -0.0900
      6 H6         -4.2882    2.1647   64.0240 H       1  ZINC000550952205    0.1000
      7 C7         -4.4805    4.1651   64.7422 C.3     1  ZINC000550952205   -0.1300
      8 C8         -4.2154    4.6054   63.2898 C.3     1  ZINC000550952205   -0.1200
      9 C9         -2.9210    4.0040   62.7100 C.3     1  ZINC000550952205   -0.1300
     10 C10        -1.7868    4.0170   63.6987 C.3     1  ZINC000550952205   -0.1500
     11 C11        -1.7540    2.6565   64.4247 C.3     1  ZINC000550952205    0.3000
     12 F12        -2.0023    1.6410   63.4951 F       1  ZINC000550952205   -0.2000
     13 F13        -0.4813    2.4664   64.9736 F       1  ZINC000550952205   -0.2000
     14 C14        -2.7419    2.5678   65.4878 C.3     1  ZINC000550952205   -0.1700
     15 C15        -8.3276    0.1738   65.1636 C.2     1  ZINC000550952205    0.5100
     16 O16        -8.9058   -0.8108   65.5757 O.2     1  ZINC000550952205   -0.4900
     17 N17        -8.7925    0.8233   64.0781 N.am    1  ZINC000550952205   -0.6400
     18 C18        -9.9405    0.3630   63.4266 C.ar    1  ZINC000550952205    0.1500
     19 C19       -11.1753    0.9554   63.6863 C.ar    1  ZINC000550952205   -0.1200
     20 C20       -12.3012    0.5179   63.0595 C.ar    1  ZINC000550952205   -0.0400
     21 C21       -12.2394   -0.5443   62.1345 C.ar    1  ZINC000550952205    0.0800
     22 N22       -13.2257   -1.1176   61.4181 N.2     1  ZINC000550952205   -0.4700
     23 C23       -12.9140   -2.0794   60.6349 C.2     1  ZINC000550952205    0.1200
     24 C24       -13.8997   -2.8209   59.7690 C.3     1  ZINC000550952205   -0.1100
     25 C25       -14.9879   -3.6333   60.4739 C.3     1  ZINC000550952205   -0.1500
     26 C26       -15.3475   -2.3265   59.7642 C.3     1  ZINC000550952205   -0.1500
     27 S27       -11.2424   -2.4176   60.6921 S.3     1  ZINC000550952205    0.1200
     28 C28       -10.9978   -1.1367   61.8755 C.ar    1  ZINC000550952205   -0.1700
     29 C29        -9.8517   -0.6774   62.5187 C.ar    1  ZINC000550952205   -0.0700
     30 H30        -6.6335    2.0451   64.4657 H       1  ZINC000550952205    0.4200
     31 H31        -5.4366    2.9149   66.7061 H       1  ZINC000550952205    0.0800
     32 H32        -4.6901    1.3093   66.5249 H       1  ZINC000550952205    0.0800
     33 H33        -5.5267    4.3543   64.9828 H       1  ZINC000550952205    0.0700
     34 H34        -3.8546    4.7569   65.4100 H       1  ZINC000550952205    0.0700
     35 H35        -5.0561    4.2948   62.6693 H       1  ZINC000550952205    0.0700
     36 H36        -4.1421    5.6925   63.2599 H       1  ZINC000550952205    0.0700
     37 H37        -3.1144    2.9745   62.4088 H       1  ZINC000550952205    0.0800
     38 H38        -2.6287    4.5777   61.8304 H       1  ZINC000550952205    0.0700
     39 H39        -0.8448    4.1744   63.1734 H       1  ZINC000550952205    0.0900
     40 H40        -1.9426    4.8155   64.4242 H       1  ZINC000550952205    0.1000
     41 H41        -2.5559    3.3629   66.2098 H       1  ZINC000550952205    0.1000
     42 H42        -2.6350    1.6060   65.9895 H       1  ZINC000550952205    0.1000
     43 H43        -8.3306    1.6101   63.7489 H       1  ZINC000550952205    0.4300
     44 H44       -11.2392    1.7700   64.3926 H       1  ZINC000550952205    0.1400
     45 H45       -13.2499    0.9880   63.2727 H       1  ZINC000550952205    0.1400
     46 H46       -13.5001   -3.2174   58.8356 H       1  ZINC000550952205    0.1300
     47 H47       -15.3044   -4.5647   60.0043 H       1  ZINC000550952205    0.1000
     48 H48       -14.9908   -3.6315   61.5639 H       1  ZINC000550952205    0.1100
     49 H49       -15.5872   -1.4648   60.3873 H       1  ZINC000550952205    0.1000
     50 H50       -15.9007   -2.3980   58.8277 H       1  ZINC000550952205    0.1100
     51 H51        -8.8954   -1.1343   62.3113 H       1  ZINC000550952205    0.1400
@<TRIPOS>BOND
     1     1     2    2
     2     2     3   am
     3     2    15    1
     4     3     4    1
     5     3    30    1
     6     4     5    1
     7     4    31    1
     8     4    32    1
     9     5     6    1
    10     5    14    1
    11     5     7    1
    12     7     8    1
    13     7    33    1
    14     7    34    1
    15     8     9    1
    16     8    35    1
    17     8    36    1
    18     9    10    1
    19     9    37    1
    20     9    38    1
    21    10    11    1
    22    10    39    1
    23    10    40    1
    24    11    12    1
    25    11    13    1
    26    11    14    1
    27    14    41    1
    28    14    42    1
    29    15    16    2
    30    15    17   am
    31    17    18    1
    32    17    43    1
    33    18    29   ar
    34    18    19   ar
    35    19    20   ar
    36    19    44    1
    37    20    21   ar
    38    20    45    1
    39    21    28   ar
    40    21    22    1
    41    22    23    2
    42    23    24    1
    43    23    27    1
    44    24    26    1
    45    24    25    1
    46    24    46    1
    47    25    26    1
    48    25    47    1
    49    25    48    1
    50    26    49    1
    51    26    50    1
    52    27    28    1
    53    28    29   ar
    54    29    51    1
@<TRIPOS>SUBSTRUCTURE
     1 ZINC000550952205        1 TEMP              0 ****  ****    0 ROOT


##########                                Name:    ZINC000590699876
##########                DOCK_Rotatable_Bonds:                   9
##########                         Heavy_Atoms:                  30
##########                    Molecular_Weight:              421.54
##########                DOCK_Rotatable_Bonds:                   9
##########                       Formal_Charge:          -0.0300004
##########                     HBond_Acceptors:                   9
##########                        HBond_Donors:                   1
##########                         Heavy_Atoms:                  30
##########                          Grid_Score:          -34.128098
##########                     Grid_vdw_energy:          -33.517025
##########                      Grid_es_energy:           -0.611072
##########           Internal_energy_repulsive:          106.510666

@<TRIPOS>MOLECULE
ZINC000590699876
 65 67 1 0 0
SMALL
USER_CHARGES


@<TRIPOS>ATOM
      1 C1        -13.5642   -1.2323   50.7232 C.3     1  ZINC000590699876   -0.1700
      2 C2        -13.2243   -1.8912   52.0351 C.2     1  ZINC000590699876    0.5100
      3 O3        -14.1028   -2.1454   52.8316 O.2     1  ZINC000590699876   -0.5500
      4 N4        -11.9440   -2.1980   52.3233 N.am    1  ZINC000590699876   -0.7200
      5 C5        -11.6132   -2.8370   53.5995 C.3     1  ZINC000590699876    0.1100
      6 C6        -12.4018   -4.1133   53.7417 C.2     1  ZINC000590699876    0.5300
      7 O7        -12.4524   -4.9006   52.8205 O.2     1  ZINC000590699876   -0.5200
      8 N8        -13.0509   -4.3797   54.8923 N.am    1  ZINC000590699876   -0.6000
      9 C9        -13.8556   -5.5844   55.1659 C.3     1  ZINC000590699876    0.1000
     10 C10       -13.8485   -5.7240   56.7087 C.3     1  ZINC000590699876   -0.1300
     11 C11       -13.9148   -4.2398   57.1560 C.3     1  ZINC000590699876   -0.1300
     12 C12       -13.0689   -3.5199   56.0848 C.3     1  ZINC000590699876    0.1200
     13 H13       -13.5229   -2.5604   55.8371 H       1  ZINC000590699876    0.1000
     14 C14       -11.6675   -3.3067   56.5964 C.2     1  ZINC000590699876    0.5100
     15 O15       -10.7973   -4.1096   56.3334 O.2     1  ZINC000590699876   -0.5200
     16 N16       -11.3812   -2.2240   57.3461 N.am    1  ZINC000590699876   -0.6100
     17 C17       -12.4232   -1.2423   57.6833 C.3     1  ZINC000590699876    0.1000
     18 C18       -12.4035   -1.0125   59.1982 C.3     1  ZINC000590699876    0.0400
     19 N19       -11.0444   -0.6444   59.6169 N.3     1  ZINC000590699876   -0.5200
     20 C20       -11.0183   -0.2487   61.0314 C.3     1  ZINC000590699876    0.0400
     21 C21       -11.2761    1.2317   61.1437 C.2     1  ZINC000590699876    0.5200
     22 O22       -11.5357    1.8791   60.1515 O.2     1  ZINC000590699876   -0.5100
     23 N23       -11.2182    1.8364   62.3468 N.am    1  ZINC000590699876   -0.6100
     24 C24       -10.9050    1.0657   63.5578 C.3     1  ZINC000590699876    0.1100
     25 C25       -12.0024    1.3133   64.5975 C.3     1  ZINC000590699876   -0.1400
     26 C26       -12.1481    2.8188   64.8309 C.3     1  ZINC000590699876   -0.1200
     27 C27       -12.5576    3.5020   63.5241 C.3     1  ZINC000590699876   -0.1300
     28 C28       -11.4609    3.2802   62.4715 C.3     1  ZINC000590699876    0.1400
     29 H29       -10.5466    3.7842   62.7846 H       1  ZINC000590699876    0.0700
     30 C30       -11.9212    3.8423   61.1249 C.3     1  ZINC000590699876   -0.1400
     31 C31       -10.0936   -1.7335   59.3572 C.3     1  ZINC000590699876    0.0400
     32 C32       -10.0198   -1.9960   57.8540 C.3     1  ZINC000590699876    0.1200
     33 H33       -14.6395   -1.0627   50.6696 H       1  ZINC000590699876    0.1000
     34 H34       -13.0418   -0.2785   50.6494 H       1  ZINC000590699876    0.0900
     35 H35       -13.2570   -1.8791   49.9013 H       1  ZINC000590699876    0.0900
     36 H36       -11.2415   -1.9959   51.6858 H       1  ZINC000590699876    0.4100
     37 H37       -10.5473   -3.0635   53.6269 H       1  ZINC000590699876    0.1000
     38 H38       -11.8625   -2.1626   54.4188 H       1  ZINC000590699876    0.1000
     39 H39       -14.8743   -5.4509   54.8017 H       1  ZINC000590699876    0.0800
     40 H40       -13.3981   -6.4591   54.7037 H       1  ZINC000590699876    0.0800
     41 H41       -14.7224   -6.2758   57.0551 H       1  ZINC000590699876    0.0900
     42 H42       -12.9284   -6.1955   57.0541 H       1  ZINC000590699876    0.0800
     43 H43       -14.9436   -3.8797   57.1466 H       1  ZINC000590699876    0.1000
     44 H44       -13.4704   -4.1144   58.1434 H       1  ZINC000590699876    0.0900
     45 H45       -12.2220   -0.3032   57.1679 H       1  ZINC000590699876    0.0800
     46 H46       -13.3985   -1.6260   57.3837 H       1  ZINC000590699876    0.0900
     47 H47       -13.0932   -0.2078   59.4531 H       1  ZINC000590699876    0.0900
     48 H48       -12.7063   -1.9268   59.7087 H       1  ZINC000590699876    0.0400
     49 H49       -11.7894   -0.7942   61.5755 H       1  ZINC000590699876    0.1000
     50 H50       -10.0414   -0.4807   61.4555 H       1  ZINC000590699876    0.0600
     51 H51       -10.8648    0.0039   63.3149 H       1  ZINC000590699876    0.0800
     52 H52        -9.9435    1.3878   63.9575 H       1  ZINC000590699876    0.0700
     53 H53       -12.9467    0.9087   64.2333 H       1  ZINC000590699876    0.0700
     54 H54       -11.7336    0.8244   65.5339 H       1  ZINC000590699876    0.0800
     55 H55       -12.9113    2.9968   65.5884 H       1  ZINC000590699876    0.0700
     56 H56       -11.1967    3.2272   65.1715 H       1  ZINC000590699876    0.0600
     57 H57       -13.4967    3.0767   63.1699 H       1  ZINC000590699876    0.0700
     58 H58       -12.6839    4.5709   63.6965 H       1  ZINC000590699876    0.0700
     59 H59       -12.1750    4.8962   61.2388 H       1  ZINC000590699876    0.0400
     60 H60       -11.1188    3.7388   60.3946 H       1  ZINC000590699876    0.0700
     61 H61       -12.7977    3.2925   60.7822 H       1  ZINC000590699876    0.0700
     62 H62        -9.1077   -1.4516   59.7274 H       1  ZINC000590699876    0.1100
     63 H63       -10.4284   -2.6377   59.8656 H       1  ZINC000590699876    0.0300
     64 H64        -9.4049   -2.8760   57.6657 H       1  ZINC000590699876    0.0900
     65 H65        -9.5883   -1.1302   57.3518 H       1  ZINC000590699876    0.0800
@<TRIPOS>BOND
     1     1     2    1
     2     1    33    1
     3     1    34    1
     4     1    35    1
     5     2     3    2
     6     2     4   am
     7     4     5    1
     8     4    36    1
     9     5     6    1
    10     5    37    1
    11     5    38    1
    12     6     7    2
    13     6     8   am
    14     8    12    1
    15     8     9    1
    16     9    10    1
    17     9    39    1
    18     9    40    1
    19    10    11    1
    20    10    41    1
    21    10    42    1
    22    11    12    1
    23    11    43    1
    24    11    44    1
    25    12    13    1
    26    12    14    1
    27    14    15    2
    28    14    16   am
    29    16    32    1
    30    16    17    1
    31    17    18    1
    32    17    45    1
    33    17    46    1
    34    18    19    1
    35    18    47    1
    36    18    48    1
    37    19    20    1
    38    19    31    1
    39    20    21    1
    40    20    49    1
    41    20    50    1
    42    21    22    2
    43    21    23   am
    44    23    28    1
    45    23    24    1
    46    24    25    1
    47    24    51    1
    48    24    52    1
    49    25    26    1
    50    25    53    1
    51    25    54    1
    52    26    27    1
    53    26    55    1
    54    26    56    1
    55    27    28    1
    56    27    57    1
    57    27    58    1
    58    28    29    1
    59    28    30    1
    60    30    59    1
    61    30    60    1
    62    30    61    1
    63    31    32    1
    64    31    62    1
    65    31    63    1
    66    32    64    1
    67    32    65    1
@<TRIPOS>SUBSTRUCTURE
     1 ZINC000590699876        1 TEMP              0 ****  ****    0 ROOT


##########                                Name:    ZINC000573150059
##########                DOCK_Rotatable_Bonds:                   7
##########                         Heavy_Atoms:                  23
##########                    Molecular_Weight:             378.269
##########                DOCK_Rotatable_Bonds:                   7
##########                       Formal_Charge:        -2.98023e-07
##########                     HBond_Acceptors:                   5
##########                        HBond_Donors:                   2
##########                         Heavy_Atoms:                  23
##########                          Grid_Score:          -34.108246
##########                     Grid_vdw_energy:          -33.722736
##########                      Grid_es_energy:           -0.385509
##########           Internal_energy_repulsive:            6.689258

@<TRIPOS>MOLECULE
ZINC000573150059
 43 44 1 0 0
SMALL
USER_CHARGES


@<TRIPOS>ATOM
      1 C1         -7.1354    1.5302   51.0256 C.3     1  ZINC000573150059    0.0300
      2 O2         -8.3309    0.7741   51.2282 O.3     1  ZINC000573150059   -0.3600
      3 C3         -8.3989    0.1234   52.4986 C.3     1  ZINC000573150059    0.0700
      4 H4         -7.4626   -0.4011   52.6887 H       1  ZINC000573150059    0.0900
      5 C5         -8.6309    1.1661   53.5939 C.3     1  ZINC000573150059   -0.1700
      6 C6         -9.5368   -0.8647   52.4966 C.2     1  ZINC000573150059    0.5100
      7 O7         -9.4235   -1.9189   51.9074 O.2     1  ZINC000573150059   -0.4900
      8 N8        -10.6802   -0.5771   53.1493 N.am    1  ZINC000573150059   -0.6700
      9 C9        -11.7366   -1.4946   53.1474 C.ar    1  ZINC000573150059    0.1900
     10 C10       -12.7635   -1.3706   52.2202 C.ar    1  ZINC000573150059   -0.2000
     11 C11       -13.8073   -2.2761   52.2174 C.ar    1  ZINC000573150059   -0.0500
     12 C12       -13.8331   -3.3076   53.1357 C.ar    1  ZINC000573150059   -0.2200
     13 C13       -12.8086   -3.4377   54.0658 C.ar    1  ZINC000573150059    0.2400
     14 N14       -12.8350   -4.4811   54.9938 N.pl3   1  ZINC000573150059   -0.7300
     15 C15       -13.6317   -4.3539   56.2167 C.3     1  ZINC000573150059    0.2000
     16 H16       -14.3942   -3.5880   56.0754 H       1  ZINC000573150059    0.1000
     17 C17       -14.3046   -5.6922   56.5285 C.3     1  ZINC000573150059   -0.1700
     18 C18       -12.7341   -3.9639   57.3627 C.ar    1  ZINC000573150059    0.1400
     19 C19       -13.1754   -3.0413   58.2920 C.ar    1  ZINC000573150059   -0.1600
     20 C20       -12.3423   -2.6893   59.3431 C.ar    1  ZINC000573150059   -0.0400
     21 C21       -11.0904   -3.2816   59.4199 C.ar    1  ZINC000573150059   -0.1500
     22 Br22       -9.9086   -2.8438   60.8297 Br      1  ZINC000573150059   -0.0300
     23 C23       -10.7178   -4.1971   58.4523 C.ar    1  ZINC000573150059    0.1400
     24 N24       -11.5389   -4.5111   57.4696 N.ar    1  ZINC000573150059   -0.4700
     25 C25       -11.7567   -2.5326   54.0680 C.ar    1  ZINC000573150059   -0.1900
     26 H26        -7.0622    2.3054   51.7884 H       1  ZINC000573150059    0.0500
     27 H27        -6.2714    0.8693   51.0952 H       1  ZINC000573150059    0.0400
     28 H28        -7.1607    1.9926   50.0389 H       1  ZINC000573150059    0.0900
     29 H29        -9.5673    1.6907   53.4037 H       1  ZINC000573150059    0.0700
     30 H30        -8.6828    0.6698   54.5630 H       1  ZINC000573150059    0.0700
     31 H31        -7.8079    1.8808   53.5954 H       1  ZINC000573150059    0.0700
     32 H32       -10.7708    0.2659   53.6206 H       1  ZINC000573150059    0.4100
     33 H33       -12.7463   -0.5651   51.5008 H       1  ZINC000573150059    0.1200
     34 H34       -14.6047   -2.1769   51.4958 H       1  ZINC000573150059    0.1300
     35 H35       -14.6504   -4.0136   53.1312 H       1  ZINC000573150059    0.1200
     36 H36       -12.3259   -5.2902   54.8286 H       1  ZINC000573150059    0.4100
     37 H37       -13.5420   -6.4581   56.6697 H       1  ZINC000573150059    0.0600
     38 H38       -14.8973   -5.5975   57.4383 H       1  ZINC000573150059    0.0700
     39 H39       -14.9538   -5.9743   55.6996 H       1  ZINC000573150059    0.0700
     40 H40       -14.1567   -2.5998   58.2007 H       1  ZINC000573150059    0.1500
     41 H41       -12.6605   -1.9708   60.0840 H       1  ZINC000573150059    0.1500
     42 H42        -9.7448   -4.6628   58.5043 H       1  ZINC000573150059    0.1700
     43 H43       -10.9591   -2.6316   54.7894 H       1  ZINC000573150059    0.1400
@<TRIPOS>BOND
     1     1     2    1
     2     1    26    1
     3     1    27    1
     4     1    28    1
     5     2     3    1
     6     3     4    1
     7     3     5    1
     8     3     6    1
     9     5    29    1
    10     5    30    1
    11     5    31    1
    12     6     7    2
    13     6     8   am
    14     8     9    1
    15     8    32    1
    16     9    25   ar
    17     9    10   ar
    18    10    11   ar
    19    10    33    1
    20    11    12   ar
    21    11    34    1
    22    12    13   ar
    23    12    35    1
    24    13    14    1
    25    13    25   ar
    26    14    15    1
    27    14    36    1
    28    15    16    1
    29    15    17    1
    30    15    18    1
    31    17    37    1
    32    17    38    1
    33    17    39    1
    34    18    24   ar
    35    18    19   ar
    36    19    20   ar
    37    19    40    1
    38    20    21   ar
    39    20    41    1
    40    21    22    1
    41    21    23   ar
    42    23    24   ar
    43    23    42    1
    44    25    43    1
@<TRIPOS>SUBSTRUCTURE
     1 ZINC000573150059        1 TEMP              0 ****  ****    0 ROOT


##########                                Name:    ZINC000864730443
##########                DOCK_Rotatable_Bonds:                  10
##########                         Heavy_Atoms:                  25
##########                    Molecular_Weight:             356.462
##########                DOCK_Rotatable_Bonds:                  10
##########                       Formal_Charge:           0.0299988
##########                     HBond_Acceptors:                   7
##########                        HBond_Donors:                   2
##########                         Heavy_Atoms:                  25
##########                          Grid_Score:          -34.082981
##########                     Grid_vdw_energy:          -33.915398
##########                      Grid_es_energy:           -0.167583
##########           Internal_energy_repulsive:           26.724279

@<TRIPOS>MOLECULE
ZINC000864730443
 57 58 1 0 0
SMALL
USER_CHARGES


@<TRIPOS>ATOM
      1 C1        -11.7148   -2.4927   51.8464 C.3     1  ZINC000864730443   -0.1800
      2 C2        -12.4500   -2.5952   53.1842 C.3     1  ZINC000864730443    0.1400
      3 C3        -13.6261   -3.5640   53.0470 C.3     1  ZINC000864730443   -0.1800
      4 C4        -11.4879   -3.1097   54.2568 C.3     1  ZINC000864730443   -0.1400
      5 O5        -12.9446   -1.2845   53.5663 O.3     1  ZINC000864730443   -0.3600
      6 C6        -12.8239   -0.9394   54.8620 C.2     1  ZINC000864730443    0.6500
      7 O7        -11.9511   -0.1670   55.2061 O.2     1  ZINC000864730443   -0.5700
      8 N8        -13.6708   -1.4504   55.7773 N.am    1  ZINC000864730443   -0.7100
      9 C9        -13.5405   -1.0734   57.1870 C.3     1  ZINC000864730443    0.1500
     10 C10       -13.8753   -2.2773   58.0699 C.3     1  ZINC000864730443   -0.1300
     11 C11       -12.6201   -3.0640   58.3461 C.2     1  ZINC000864730443    0.5300
     12 O12       -12.5607   -4.2370   58.0433 O.2     1  ZINC000864730443   -0.5300
     13 N13       -11.5636   -2.4643   58.9296 N.am    1  ZINC000864730443   -0.7200
     14 C14       -10.3433   -3.2291   59.1982 C.3     1  ZINC000864730443    0.1200
     15 C15       -10.0490   -3.2095   60.6995 C.3     1  ZINC000864730443   -0.1300
     16 C16        -9.6993   -1.7843   61.1321 C.3     1  ZINC000864730443    0.0800
     17 H17        -9.1256   -1.2830   60.3525 H       1  ZINC000864730443    0.0800
     18 C18       -10.9893   -0.9862   61.4481 C.3     1  ZINC000864730443   -0.1500
     19 C19       -10.4397    0.0869   62.4271 C.3     1  ZINC000864730443   -0.1600
     20 C20        -9.3378   -0.6898   63.1795 C.3     1  ZINC000864730443    0.0500
     21 O21        -8.9574   -1.8044   62.3620 O.3     1  ZINC000864730443   -0.3800
     22 C22       -14.4776   -1.7909   59.3917 C.3     1  ZINC000864730443   -0.1000
     23 C23       -14.8803   -3.0052   60.2341 C.3     1  ZINC000864730443   -0.1600
     24 C24       -15.8576   -3.8702   59.4338 C.3     1  ZINC000864730443    0.0600
     25 O25       -15.2465   -4.2629   58.2032 O.3     1  ZINC000864730443   -0.3700
     26 C26       -14.8915   -3.1703   57.3532 C.3     1  ZINC000864730443    0.0800
     27 H27       -12.4003   -2.1262   51.0823 H       1  ZINC000864730443    0.0900
     28 H28       -10.8769   -1.8025   51.9441 H       1  ZINC000864730443    0.0600
     29 H29       -11.3436   -3.4766   51.5596 H       1  ZINC000864730443    0.0700
     30 H30       -13.2549   -4.5479   52.7602 H       1  ZINC000864730443    0.0700
     31 H31       -14.1499   -3.6370   54.0002 H       1  ZINC000864730443    0.0600
     32 H32       -14.3116   -3.1974   52.2829 H       1  ZINC000864730443    0.0900
     33 H33       -10.6499   -2.4194   54.3546 H       1  ZINC000864730443    0.0700
     34 H34       -12.0116   -3.1827   55.2100 H       1  ZINC000864730443    0.0700
     35 H35       -11.1166   -4.0936   53.9700 H       1  ZINC000864730443    0.0800
     36 H36       -14.3667   -2.0680   55.5028 H       1  ZINC000864730443    0.4100
     37 H37       -12.5178   -0.7516   57.3840 H       1  ZINC000864730443    0.0900
     38 H38       -14.2276   -0.2572   57.4098 H       1  ZINC000864730443    0.0800
     39 H39       -11.6111   -1.5261   59.1718 H       1  ZINC000864730443    0.4000
     40 H40       -10.4800   -4.2589   58.8681 H       1  ZINC000864730443    0.0700
     41 H41        -9.5083   -2.7824   58.6583 H       1  ZINC000864730443    0.0700
     42 H42       -10.9283   -3.5499   61.2464 H       1  ZINC000864730443    0.0800
     43 H43        -9.2094   -3.8707   60.9138 H       1  ZINC000864730443    0.0800
     44 H44       -11.3964   -0.5254   60.5481 H       1  ZINC000864730443    0.0900
     45 H45       -11.7326   -1.6178   61.9345 H       1  ZINC000864730443    0.0800
     46 H46       -10.0162    0.9297   61.8809 H       1  ZINC000864730443    0.0800
     47 H47       -11.2176    0.4199   63.1141 H       1  ZINC000864730443    0.0800
     48 H48        -8.4762   -0.0427   63.3442 H       1  ZINC000864730443    0.0700
     49 H49        -9.7229   -1.0451   64.1353 H       1  ZINC000864730443    0.0700
     50 H50       -13.7389   -1.2001   59.9334 H       1  ZINC000864730443    0.0800
     51 H51       -15.3572   -1.1800   59.1888 H       1  ZINC000864730443    0.0800
     52 H52       -13.9930   -3.5892   60.4786 H       1  ZINC000864730443    0.0900
     53 H53       -15.3602   -2.6682   61.1529 H       1  ZINC000864730443    0.0800
     54 H54       -16.1145   -4.7579   60.0117 H       1  ZINC000864730443    0.1000
     55 H55       -16.7616   -3.2983   59.2245 H       1  ZINC000864730443    0.0500
     56 H56       -15.7830   -2.5893   57.1167 H       1  ZINC000864730443    0.0700
     57 H57       -14.4525   -3.5539   56.4323 H       1  ZINC000864730443    0.1000
@<TRIPOS>BOND
     1     1     2    1
     2     1    27    1
     3     1    28    1
     4     1    29    1
     5     2     3    1
     6     2     4    1
     7     2     5    1
     8     3    30    1
     9     3    31    1
    10     3    32    1
    11     4    33    1
    12     4    34    1
    13     4    35    1
    14     5     6    1
    15     6     7    2
    16     6     8   am
    17     8     9    1
    18     8    36    1
    19     9    10    1
    20     9    37    1
    21     9    38    1
    22    10    26    1
    23    10    11    1
    24    10    22    1
    25    11    12    2
    26    11    13   am
    27    13    14    1
    28    13    39    1
    29    14    15    1
    30    14    40    1
    31    14    41    1
    32    15    16    1
    33    15    42    1
    34    15    43    1
    35    16    17    1
    36    16    21    1
    37    16    18    1
    38    18    19    1
    39    18    44    1
    40    18    45    1
    41    19    20    1
    42    19    46    1
    43    19    47    1
    44    20    21    1
    45    20    48    1
    46    20    49    1
    47    22    23    1
    48    22    50    1
    49    22    51    1
    50    23    24    1
    51    23    52    1
    52    23    53    1
    53    24    25    1
    54    24    54    1
    55    24    55    1
    56    25    26    1
    57    26    56    1
    58    26    57    1
@<TRIPOS>SUBSTRUCTURE
     1 ZINC000864730443        1 TEMP              0 ****  ****    0 ROOT


##########                                Name:    ZINC000536173632
##########                DOCK_Rotatable_Bonds:                   7
##########                         Heavy_Atoms:                  29
##########                    Molecular_Weight:             407.389
##########                DOCK_Rotatable_Bonds:                   7
##########                       Formal_Charge:        -2.98023e-07
##########                     HBond_Acceptors:                   8
##########                        HBond_Donors:                   0
##########                         Heavy_Atoms:                  29
##########                          Grid_Score:          -34.042290
##########                     Grid_vdw_energy:          -34.503052
##########                      Grid_es_energy:            0.460761
##########           Internal_energy_repulsive:           18.113436

@<TRIPOS>MOLECULE
ZINC000536173632
 49 51 1 0 0
SMALL
USER_CHARGES


@<TRIPOS>ATOM
      1 C1         -8.9021    2.0326   55.3542 C.3     1  ZINC000536173632    0.0400
      2 O2         -9.9362    1.0982   54.9468 O.3     1  ZINC000536173632   -0.3500
      3 C3         -9.6500    0.2810   53.9149 C.2     1  ZINC000536173632    0.5100
      4 O4         -8.5666    0.3478   53.3696 O.2     1  ZINC000536173632   -0.5000
      5 C5        -10.6538   -0.6964   53.4464 C.ar    1  ZINC000536173632   -0.1300
      6 C6        -10.3733   -1.5214   52.3556 C.ar    1  ZINC000536173632   -0.0600
      7 C7        -11.3152   -2.4319   51.9231 C.ar    1  ZINC000536173632   -0.1300
      8 C8        -12.5356   -2.5283   52.5675 C.ar    1  ZINC000536173632   -0.0700
      9 C9        -12.8203   -1.7136   53.6493 C.ar    1  ZINC000536173632   -0.0800
     10 C10       -14.1525   -1.8258   54.3450 C.3     1  ZINC000536173632   -0.1000
     11 C11       -14.5592   -3.2748   54.4206 C.2     1  ZINC000536173632    0.5200
     12 O12       -15.4565   -3.6903   53.7184 O.2     1  ZINC000536173632   -0.5200
     13 N13       -13.9257   -4.1091   55.2686 N.am    1  ZINC000536173632   -0.6200
     14 C14       -14.3050   -5.5280   55.3601 C.3     1  ZINC000536173632    0.0700
     15 C15       -14.5235   -5.8758   56.8371 C.3     1  ZINC000536173632    0.0500
     16 O16       -13.3756   -5.4758   57.5895 O.3     1  ZINC000536173632   -0.3700
     17 C17       -13.1239   -4.0686   57.5695 C.3     1  ZINC000536173632    0.1200
     18 H18       -13.9988   -3.5369   57.9436 H       1  ZINC000536173632    0.0800
     19 C19       -11.9348   -3.7576   58.4414 C.ar    1  ZINC000536173632   -0.0900
     20 C20       -10.8124   -4.5624   58.3923 C.ar    1  ZINC000536173632   -0.0600
     21 C21        -9.7214   -4.2771   59.1922 C.ar    1  ZINC000536173632   -0.1200
     22 C22        -9.7531   -3.1865   60.0407 C.ar    1  ZINC000536173632   -0.0700
     23 C23       -10.8755   -2.3807   60.0892 C.ar    1  ZINC000536173632   -0.1800
     24 C24       -10.9103   -1.1918   61.0147 C.3     1  ZINC000536173632    0.5100
     25 F25       -12.1516   -1.1375   61.6575 F       1  ZINC000536173632   -0.1800
     26 F26        -9.8954   -1.3145   61.9697 F       1  ZINC000536173632   -0.1800
     27 F27       -10.7161   -0.0199   60.2758 F       1  ZINC000536173632   -0.1800
     28 C28       -11.9644   -2.6635   59.2864 C.ar    1  ZINC000536173632   -0.0500
     29 C29       -12.8301   -3.6296   56.1260 C.3     1  ZINC000536173632    0.0900
     30 C30       -11.8853   -0.8033   54.0960 C.ar    1  ZINC000536173632   -0.0400
     31 H31        -8.0120    1.4805   55.6559 H       1  ZINC000536173632    0.0600
     32 H32        -8.6567    2.6895   54.5196 H       1  ZINC000536173632    0.0600
     33 H33        -9.2613    2.6292   56.1927 H       1  ZINC000536173632    0.1000
     34 H34        -9.4212   -1.4466   51.8512 H       1  ZINC000536173632    0.1400
     35 H35       -11.0994   -3.0708   51.0794 H       1  ZINC000536173632    0.1400
     36 H36       -13.2697   -3.2424   52.2245 H       1  ZINC000536173632    0.1300
     37 H37       -14.0716   -1.4180   55.3526 H       1  ZINC000536173632    0.1100
     38 H38       -14.9025   -1.2665   53.7857 H       1  ZINC000536173632    0.1100
     39 H39       -15.2262   -5.6984   54.8027 H       1  ZINC000536173632    0.1000
     40 H40       -13.5077   -6.1483   54.9509 H       1  ZINC000536173632    0.0800
     41 H41       -15.4034   -5.3507   57.2085 H       1  ZINC000536173632    0.0600
     42 H42       -14.6697   -6.9510   56.9401 H       1  ZINC000536173632    0.1100
     43 H43       -10.7876   -5.4146   57.7293 H       1  ZINC000536173632    0.1400
     44 H44        -8.8446   -4.9065   59.1544 H       1  ZINC000536173632    0.1400
     45 H45        -8.9012   -2.9639   60.6662 H       1  ZINC000536173632    0.1400
     46 H46       -12.8413   -2.0341   59.3241 H       1  ZINC000536173632    0.1400
     47 H47       -11.8840   -4.0593   55.7969 H       1  ZINC000536173632    0.0800
     48 H48       -12.7766   -2.5420   56.0768 H       1  ZINC000536173632    0.1100
     49 H49       -12.1085   -0.1684   54.9406 H       1  ZINC000536173632    0.1400
@<TRIPOS>BOND
     1     1     2    1
     2     1    31    1
     3     1    32    1
     4     1    33    1
     5     2     3    1
     6     3     4    2
     7     3     5    1
     8     5    30   ar
     9     5     6   ar
    10     6     7   ar
    11     6    34    1
    12     7     8   ar
    13     7    35    1
    14     8     9   ar
    15     8    36    1
    16     9    10    1
    17     9    30   ar
    18    10    11    1
    19    10    37    1
    20    10    38    1
    21    11    12    2
    22    11    13   am
    23    13    29    1
    24    13    14    1
    25    14    15    1
    26    14    39    1
    27    14    40    1
    28    15    16    1
    29    15    41    1
    30    15    42    1
    31    16    17    1
    32    17    18    1
    33    17    19    1
    34    17    29    1
    35    19    28   ar
    36    19    20   ar
    37    20    21   ar
    38    20    43    1
    39    21    22   ar
    40    21    44    1
    41    22    23   ar
    42    22    45    1
    43    23    24    1
    44    23    28   ar
    45    24    25    1
    46    24    26    1
    47    24    27    1
    48    28    46    1
    49    29    47    1
    50    29    48    1
    51    30    49    1
@<TRIPOS>SUBSTRUCTURE
     1 ZINC000536173632        1 TEMP              0 ****  ****    0 ROOT


##########                                Name:    ZINC001271977984
##########                DOCK_Rotatable_Bonds:                   7
##########                         Heavy_Atoms:                  24
##########                    Molecular_Weight:             328.371
##########                DOCK_Rotatable_Bonds:                   7
##########                       Formal_Charge:           0.0200001
##########                     HBond_Acceptors:                   7
##########                        HBond_Donors:                   0
##########                         Heavy_Atoms:                  24
##########                          Grid_Score:          -34.036442
##########                     Grid_vdw_energy:          -32.996391
##########                      Grid_es_energy:           -1.040049
##########           Internal_energy_repulsive:           18.916689

@<TRIPOS>MOLECULE
ZINC001271977984
 44 46 1 0 0
SMALL
USER_CHARGES


@<TRIPOS>ATOM
      1 C1        -14.2868   -6.0996   56.2752 C.3     1  ZINC001271977984   -0.1800
      2 C2        -14.3651   -4.6199   56.6563 C.3     1  ZINC001271977984    0.1700
      3 H3        -15.2716   -4.4411   57.2345 H       1  ZINC001271977984    0.1100
      4 C4        -13.1608   -4.2497   57.4832 C.2     1  ZINC001271977984    0.2700
      5 N5        -12.0518   -4.9250   57.5233 N.2     1  ZINC001271977984   -0.4700
      6 C6        -11.1887   -4.3009   58.3700 C.ar    1  ZINC001271977984    0.0200
      7 C7         -9.8854   -4.5682   58.7909 C.ar    1  ZINC001271977984   -0.0600
      8 C8         -9.2680   -3.7194   59.6825 C.ar    1  ZINC001271977984   -0.1200
      9 C9         -9.9332   -2.6018   60.1638 C.ar    1  ZINC001271977984   -0.0900
     10 C10       -11.2219   -2.3254   59.7566 C.ar    1  ZINC001271977984   -0.0900
     11 C11       -11.8585   -3.1687   58.8594 C.ar    1  ZINC001271977984    0.0100
     12 O12       -13.0787   -3.1719   58.2790 O.3     1  ZINC001271977984   -0.2100
     13 N13       -14.3924   -3.8010   55.4370 N.3     1  ZINC001271977984   -0.5300
     14 C14       -15.0913   -2.5304   55.6718 C.3     1  ZINC001271977984    0.0000
     15 C15       -13.0341   -3.5685   54.9283 C.3     1  ZINC001271977984    0.0400
     16 C16       -13.1038   -3.1641   53.4544 C.3     1  ZINC001271977984    0.1200
     17 N17       -12.1775   -2.0562   53.2077 N.am    1  ZINC001271977984   -0.6000
     18 C18       -12.6749   -0.6785   53.1777 C.3     1  ZINC001271977984    0.0800
     19 C19       -10.8679   -2.3043   53.0084 C.2     1  ZINC001271977984    0.6000
     20 O20       -10.4551   -3.4479   53.0332 O.2     1  ZINC001271977984   -0.5300
     21 C21        -9.9359   -1.1894   52.7601 C.2     1  ZINC001271977984   -0.0800
     22 C22        -8.9073   -1.1787   51.8691 C.2     1  ZINC001271977984    0.0200
     23 O23        -8.3194    0.0246   51.9645 O.3     1  ZINC001271977984   -0.2000
     24 C24        -8.9721    0.7376   52.8933 C.2     1  ZINC001271977984    0.1800
     25 N25        -9.9459    0.0246   53.3745 N.2     1  ZINC001271977984   -0.4600
     26 H26       -15.1578   -6.3673   55.6771 H       1  ZINC001271977984    0.0800
     27 H27       -13.3802   -6.2783   55.6971 H       1  ZINC001271977984    0.0800
     28 H28       -14.2665   -6.7073   57.1798 H       1  ZINC001271977984    0.0700
     29 H29        -9.3632   -5.4375   58.4193 H       1  ZINC001271977984    0.1400
     30 H30        -8.2594   -3.9256   60.0092 H       1  ZINC001271977984    0.1400
     31 H31        -9.4388   -1.9433   60.8627 H       1  ZINC001271977984    0.1400
     32 H32       -11.7337   -1.4531   60.1357 H       1  ZINC001271977984    0.1400
     33 H33       -14.5783   -1.9730   56.4557 H       1  ZINC001271977984    0.0300
     34 H34       -15.0970   -1.9437   54.7532 H       1  ZINC001271977984    0.0700
     35 H35       -16.1170   -2.7316   55.9809 H       1  ZINC001271977984    0.1100
     36 H36       -12.5628   -2.7705   55.5022 H       1  ZINC001271977984    0.0500
     37 H37       -12.4478   -4.4821   55.0271 H       1  ZINC001271977984    0.0800
     38 H38       -12.8276   -4.0144   52.8309 H       1  ZINC001271977984    0.0900
     39 H39       -14.1189   -2.8499   53.2114 H       1  ZINC001271977984    0.0900
     40 H40       -12.5426   -0.2230   54.1591 H       1  ZINC001271977984    0.0600
     41 H41       -12.1188   -0.1075   52.4342 H       1  ZINC001271977984    0.0900
     42 H42       -13.7335   -0.6799   52.9175 H       1  ZINC001271977984    0.0700
     43 H43        -8.6185   -1.9847   51.2109 H       1  ZINC001271977984    0.2300
     44 H44        -8.7290    1.7467   53.1919 H       1  ZINC001271977984    0.2600
@<TRIPOS>BOND
     1     1     2    1
     2     1    26    1
     3     1    27    1
     4     1    28    1
     5     2     3    1
     6     2     4    1
     7     2    13    1
     8     4    12    1
     9     4     5    2
    10     5     6    1
    11     6    11   ar
    12     6     7   ar
    13     7     8   ar
    14     7    29    1
    15     8     9   ar
    16     8    30    1
    17     9    10   ar
    18     9    31    1
    19    10    11   ar
    20    10    32    1
    21    11    12    1
    22    13    14    1
    23    13    15    1
    24    14    33    1
    25    14    34    1
    26    14    35    1
    27    15    16    1
    28    15    36    1
    29    15    37    1
    30    16    17    1
    31    16    38    1
    32    16    39    1
    33    17    18    1
    34    17    19   am
    35    18    40    1
    36    18    41    1
    37    18    42    1
    38    19    20    2
    39    19    21    1
    40    21    25    1
    41    21    22    2
    42    22    23    1
    43    22    43    1
    44    23    24    1
    45    24    25    2
    46    24    44    1
@<TRIPOS>SUBSTRUCTURE
     1 ZINC001271977984        1 TEMP              0 ****  ****    0 ROOT


##########                                Name:    ZINC000432833246
##########                DOCK_Rotatable_Bonds:                   5
##########                         Heavy_Atoms:                  25
##########                    Molecular_Weight:             400.318
##########                DOCK_Rotatable_Bonds:                   5
##########                       Formal_Charge:        -3.20375e-07
##########                     HBond_Acceptors:                   4
##########                        HBond_Donors:                   1
##########                         Heavy_Atoms:                  25
##########                          Grid_Score:          -34.030251
##########                     Grid_vdw_energy:          -32.823101
##########                      Grid_es_energy:           -1.207148
##########           Internal_energy_repulsive:            5.246355

@<TRIPOS>MOLECULE
ZINC000432833246
 47 51 1 0 0
SMALL
USER_CHARGES


@<TRIPOS>ATOM
      1 O1         -6.1480    3.6171   52.2386 O.2     1  ZINC000432833246   -0.5200
      2 C2         -6.9898    2.9077   52.7477 C.2     1  ZINC000432833246    0.5200
      3 C3         -7.5248    3.0698   54.1534 C.3     1  ZINC000432833246   -0.1500
      4 C4         -8.8233    2.2301   54.1641 C.3     1  ZINC000432833246   -0.1100
      5 H5         -9.6894    2.8483   53.9276 H       1  ZINC000432833246    0.1000
      6 C6         -9.0082    1.5250   55.5092 C.3     1  ZINC000432833246    0.1300
      7 N7        -10.3518    0.9448   55.5758 N.pl3   1  ZINC000432833246   -0.7200
      8 C8        -10.5503   -0.2736   56.2074 C.ar    1  ZINC000432833246    0.2800
      9 C9        -11.3848   -1.2642   55.6369 C.ar    1  ZINC000432833246   -0.1500
     10 C10       -12.0393   -1.0518   54.4156 C.ar    1  ZINC000432833246   -0.0700
     11 C11       -12.8344   -2.0298   53.8981 C.ar    1  ZINC000432833246   -0.1300
     12 C12       -13.0058   -3.2390   54.5673 C.ar    1  ZINC000432833246   -0.0600
     13 C13       -12.3844   -3.4778   55.7557 C.ar    1  ZINC000432833246   -0.0800
     14 Br14      -12.6346   -5.1291   56.6426 Br      1  ZINC000432833246   -0.0300
     15 C15       -11.5556   -2.4916   56.3202 C.ar    1  ZINC000432833246    0.1900
     16 N16       -10.9329   -2.6998   57.4857 N.ar    1  ZINC000432833246   -0.5000
     17 C17       -10.1561   -1.7889   58.0246 C.ar    1  ZINC000432833246    0.2400
     18 C18        -9.4832   -2.0856   59.3399 C.3     1  ZINC000432833246   -0.1100
     19 C19       -10.1580   -1.5668   60.6114 C.3     1  ZINC000432833246   -0.1700
     20 C20       -10.1834   -3.0619   60.2872 C.3     1  ZINC000432833246   -0.1600
     21 C21        -9.9332   -0.5622   57.4146 C.ar    1  ZINC000432833246   -0.2700
     22 C22        -8.5479    1.2099   53.0374 C.3     1  ZINC000432833246    0.1100
     23 N23        -7.5872    1.8664   52.1429 N.am    1  ZINC000432833246   -0.5900
     24 C24        -7.3086    1.4367   50.7704 C.3     1  ZINC000432833246    0.0800
     25 C25        -5.9116    0.8892   50.4713 C.3     1  ZINC000432833246   -0.1900
     26 C26        -7.1099   -0.0605   50.5254 C.3     1  ZINC000432833246   -0.1900
     27 H27        -6.8123    2.6797   54.8802 H       1  ZINC000432833246    0.1100
     28 H28        -7.7460    4.1171   54.3589 H       1  ZINC000432833246    0.1000
     29 H29        -8.2653    0.7337   55.6098 H       1  ZINC000432833246    0.0800
     30 H30        -8.8831    2.2456   56.3175 H       1  ZINC000432833246    0.0700
     31 H31       -11.1025    1.4130   55.1782 H       1  ZINC000432833246    0.4000
     32 H32       -11.9144   -0.1178   53.8880 H       1  ZINC000432833246    0.1300
     33 H33       -13.3383   -1.8651   52.9571 H       1  ZINC000432833246    0.1400
     34 H34       -13.6416   -3.9989   54.1377 H       1  ZINC000432833246    0.1400
     35 H35        -8.3936   -2.0997   59.3180 H       1  ZINC000432833246    0.1300
     36 H36        -9.5121   -1.2395   61.4262 H       1  ZINC000432833246    0.1000
     37 H37       -11.0885   -1.0111   60.4965 H       1  ZINC000432833246    0.1000
     38 H38       -11.1307   -3.4897   59.9591 H       1  ZINC000432833246    0.0900
     39 H39        -9.5543   -3.7181   60.8888 H       1  ZINC000432833246    0.1000
     40 H40        -9.2885    0.1671   57.8823 H       1  ZINC000432833246    0.1400
     41 H41        -8.1203    0.2969   53.4515 H       1  ZINC000432833246    0.0800
     42 H42        -9.4684    0.9855   52.4985 H       1  ZINC000432833246    0.0900
     43 H43        -7.8015    2.0135   49.9878 H       1  ZINC000432833246    0.1300
     44 H44        -5.4849    1.1060   49.4920 H       1  ZINC000432833246    0.1000
     45 H45        -5.1997    0.8488   51.2958 H       1  ZINC000432833246    0.1300
     46 H46        -7.1865   -0.7257   51.3855 H       1  ZINC000432833246    0.0900
     47 H47        -7.4718   -0.4684   49.5816 H       1  ZINC000432833246    0.1000
@<TRIPOS>BOND
     1     1     2    2
     2     2    23   am
     3     2     3    1
     4     3     4    1
     5     3    27    1
     6     3    28    1
     7     4     5    1
     8     4     6    1
     9     4    22    1
    10     6     7    1
    11     6    29    1
    12     6    30    1
    13     7     8    1
    14     7    31    1
    15     8    21   ar
    16     8     9   ar
    17     9    15   ar
    18     9    10   ar
    19    10    11   ar
    20    10    32    1
    21    11    12   ar
    22    11    33    1
    23    12    13   ar
    24    12    34    1
    25    13    14    1
    26    13    15   ar
    27    15    16   ar
    28    16    17   ar
    29    17    18    1
    30    17    21   ar
    31    18    20    1
    32    18    19    1
    33    18    35    1
    34    19    20    1
    35    19    36    1
    36    19    37    1
    37    20    38    1
    38    20    39    1
    39    21    40    1
    40    22    23    1
    41    22    41    1
    42    22    42    1
    43    23    24    1
    44    24    26    1
    45    24    25    1
    46    24    43    1
    47    25    26    1
    48    25    44    1
    49    25    45    1
    50    26    46    1
    51    26    47    1
@<TRIPOS>SUBSTRUCTURE
     1 ZINC000432833246        1 TEMP              0 ****  ****    0 ROOT


##########                                Name:    ZINC000826052721
##########                DOCK_Rotatable_Bonds:                   3
##########                         Heavy_Atoms:                  29
##########                    Molecular_Weight:             393.399
##########                DOCK_Rotatable_Bonds:                   3
##########                       Formal_Charge:        -4.47035e-07
##########                     HBond_Acceptors:                   9
##########                        HBond_Donors:                   2
##########                         Heavy_Atoms:                  29
##########                          Grid_Score:          -33.978802
##########                     Grid_vdw_energy:          -31.175800
##########                      Grid_es_energy:           -2.803003
##########           Internal_energy_repulsive:           15.950655

@<TRIPOS>MOLECULE
ZINC000826052721
 46 50 1 0 0
SMALL
USER_CHARGES


@<TRIPOS>ATOM
      1 C1         -8.8810   -3.9078   59.6709 C.3     1  ZINC000826052721   -0.0400
      2 N2         -9.1083   -2.5119   60.0685 N.4     1  ZINC000826052721   -0.3800
      3 H3         -8.3187   -1.9488   59.7905 H       1  ZINC000826052721    0.4300
      4 C4         -9.2764   -2.4373   61.5226 C.3     1  ZINC000826052721    0.0500
      5 C5         -9.6575   -1.0417   61.9406 C.ar    1  ZINC000826052721   -0.1300
      6 C6         -9.4822   -0.6757   63.2665 C.ar    1  ZINC000826052721   -0.1000
      7 C7         -9.8248    0.5926   63.6913 C.ar    1  ZINC000826052721   -0.1000
      8 C8        -10.3454    1.5033   62.7913 C.ar    1  ZINC000826052721   -0.0800
      9 C9        -10.5193    1.1411   61.4700 C.ar    1  ZINC000826052721   -0.0800
     10 C10       -10.1745   -0.1313   61.0428 C.ar    1  ZINC000826052721   -0.1200
     11 C11       -10.3765   -0.4866   59.5919 C.3     1  ZINC000826052721    0.1100
     12 H12        -9.5885   -0.0289   58.9937 H       1  ZINC000826052721    0.1100
     13 N13       -11.6829    0.0136   59.1438 N.3     1  ZINC000826052721   -0.6200
     14 C14       -12.2860   -0.8811   58.2794 C.ar    1  ZINC000826052721    0.1600
     15 C15       -11.9653   -0.8983   56.9176 C.ar    1  ZINC000826052721   -0.0400
     16 C16       -10.9684    0.0469   56.3742 C.2     1  ZINC000826052721    0.0700
     17 N17       -10.2887   -0.0777   55.2317 N.2     1  ZINC000826052721   -0.3800
     18 N18        -9.5261    0.9559   55.1205 N.2     1  ZINC000826052721   -0.1600
     19 N19        -9.6900    1.7175   56.1447 N.2     1  ZINC000826052721   -0.1700
     20 N20       -10.5653    1.1913   56.9314 N.pl3   1  ZINC000826052721   -0.3400
     21 C21       -12.5959   -1.8246   56.0745 C.ar    1  ZINC000826052721    0.1800
     22 N22       -13.4867   -2.6705   56.5273 N.ar    1  ZINC000826052721   -0.4700
     23 C23       -13.8419   -2.7021   57.8187 C.ar    1  ZINC000826052721    0.0900
     24 C24       -14.8034   -3.6205   58.2781 C.ar    1  ZINC000826052721    0.1700
     25 F25       -15.3803   -4.4858   57.4158 F       1  ZINC000826052721   -0.1100
     26 C26       -15.1505   -3.6354   59.5968 C.ar    1  ZINC000826052721   -0.1900
     27 C27       -14.5672   -2.7511   60.5024 C.ar    1  ZINC000826052721    0.1300
     28 F28       -14.9319   -2.7894   61.8027 F       1  ZINC000826052721   -0.1300
     29 C29       -13.6316   -1.8465   60.0905 C.ar    1  ZINC000826052721   -0.1500
     30 C30       -13.2521   -1.8058   58.7415 C.ar    1  ZINC000826052721   -0.0600
     31 C31       -10.3275   -2.0055   59.4206 C.3     1  ZINC000826052721    0.0000
     32 H32        -9.7364   -4.5143   59.9686 H       1  ZINC000826052721    0.1200
     33 H33        -8.7562   -3.9618   58.5893 H       1  ZINC000826052721    0.1300
     34 H34        -7.9819   -4.2829   60.1595 H       1  ZINC000826052721    0.1200
     35 H35        -8.3404   -2.7148   62.0074 H       1  ZINC000826052721    0.1400
     36 H36       -10.0590   -3.1309   61.8300 H       1  ZINC000826052721    0.1400
     37 H37        -9.0753   -1.3863   63.9706 H       1  ZINC000826052721    0.1300
     38 H38        -9.6861    0.8727   64.7250 H       1  ZINC000826052721    0.1300
     39 H39       -10.6152    2.4960   63.1205 H       1  ZINC000826052721    0.1300
     40 H40       -10.9253    1.8527   60.7664 H       1  ZINC000826052721    0.1400
     41 H41       -11.5950    0.9241   58.7182 H       1  ZINC000826052721    0.4100
     42 H42       -12.3433   -1.8377   55.0245 H       1  ZINC000826052721    0.1800
     43 H43       -15.8890   -4.3426   59.9446 H       1  ZINC000826052721    0.1600
     44 H44       -13.1861   -1.1652   60.8004 H       1  ZINC000826052721    0.1400
     45 H45       -11.2043   -2.4547   59.8868 H       1  ZINC000826052721    0.1400
     46 H46       -10.3067   -2.2535   58.3593 H       1  ZINC000826052721    0.1400
@<TRIPOS>BOND
     1     1     2    1
     2     1    32    1
     3     1    33    1
     4     1    34    1
     5     2     3    1
     6     2    31    1
     7     2     4    1
     8     4     5    1
     9     4    35    1
    10     4    36    1
    11     5    10   ar
    12     5     6   ar
    13     6     7   ar
    14     6    37    1
    15     7     8   ar
    16     7    38    1
    17     8     9   ar
    18     8    39    1
    19     9    10   ar
    20     9    40    1
    21    10    11    1
    22    11    12    1
    23    11    13    1
    24    11    31    1
    25    13    14    1
    26    13    41    1
    27    14    30   ar
    28    14    15   ar
    29    15    16    1
    30    15    21   ar
    31    16    20    1
    32    16    17    2
    33    17    18    1
    34    18    19    2
    35    19    20    1
    36    21    22   ar
    37    21    42    1
    38    22    23   ar
    39    23    30   ar
    40    23    24   ar
    41    24    25    1
    42    24    26   ar
    43    26    27   ar
    44    26    43    1
    45    27    28    1
    46    27    29   ar
    47    29    30   ar
    48    29    44    1
    49    31    45    1
    50    31    46    1
@<TRIPOS>SUBSTRUCTURE
     1 ZINC000826052721        1 TEMP              0 ****  ****    0 ROOT


##########                                Name:    ZINC000821214121
##########                DOCK_Rotatable_Bonds:                  10
##########                         Heavy_Atoms:                  23
##########                    Molecular_Weight:             338.434
##########                DOCK_Rotatable_Bonds:                  10
##########                       Formal_Charge:          0.00999954
##########                     HBond_Acceptors:                   9
##########                        HBond_Donors:                   3
##########                         Heavy_Atoms:                  23
##########                          Grid_Score:          -33.970867
##########                     Grid_vdw_energy:          -29.842293
##########                      Grid_es_energy:           -4.128573
##########           Internal_energy_repulsive:           10.728142

@<TRIPOS>MOLECULE
ZINC000821214121
 45 46 1 0 0
SMALL
USER_CHARGES


@<TRIPOS>ATOM
      1 C1        -14.7512    1.9038   60.7325 C.3     1  ZINC000821214121   -0.1500
      2 C2        -14.3165    1.6189   62.1714 C.3     1  ZINC000821214121    0.0500
      3 N3        -13.4444    0.4369   62.1944 N.3     1  ZINC000821214121   -0.5200
      4 C4        -12.2545    0.6766   63.0218 C.3     1  ZINC000821214121    0.0600
      5 C5        -11.1713   -0.3434   62.6650 C.3     1  ZINC000821214121   -0.1200
      6 C6         -9.9891   -0.1885   63.6237 C.3     1  ZINC000821214121    0.0800
      7 O7         -9.0042   -1.1813   63.3300 O.3     1  ZINC000821214121   -0.5700
      8 C8        -14.1772   -0.7490   62.6574 C.3     1  ZINC000821214121    0.0400
      9 C9        -14.0703   -1.8409   61.6243 C.2     1  ZINC000821214121    0.5000
     10 O10       -14.2569   -2.9967   61.9418 O.2     1  ZINC000821214121   -0.4800
     11 N11       -13.7676   -1.5333   60.3476 N.am    1  ZINC000821214121   -0.6300
     12 C12       -13.6703   -2.5430   59.3917 C.2     1  ZINC000821214121    0.0800
     13 C13       -12.5070   -3.0210   58.8661 C.2     1  ZINC000821214121   -0.1000
     14 C14       -11.1728   -2.5089   59.2604 C.2     1  ZINC000821214121    0.2900
     15 N15       -10.2578   -3.1620   59.9536 N.2     1  ZINC000821214121   -0.3300
     16 N16        -9.1703   -2.2822   60.0802 N.pl3   1  ZINC000821214121   -0.2900
     17 N17        -9.4916   -1.1908   59.4739 N.2     1  ZINC000821214121    0.0200
     18 N18       -10.6711   -1.3024   58.9748 N.2     1  ZINC000821214121   -0.2900
     19 C19       -12.6832   -4.0346   57.9242 C.2     1  ZINC000821214121   -0.0500
     20 C20       -11.5256   -4.6989   57.2245 C.3     1  ZINC000821214121   -0.1000
     21 C21       -13.9469   -4.3716   57.6898 C.2     1  ZINC000821214121   -0.2400
     22 C22       -14.3889   -5.4355   56.7182 C.3     1  ZINC000821214121   -0.0800
     23 S23       -15.0288   -3.4041   58.6810 S.3     1  ZINC000821214121    0.2600
     24 H24       -13.8698    1.9935   60.0975 H       1  ZINC000821214121    0.0700
     25 H25       -15.3763    1.0864   60.3731 H       1  ZINC000821214121    0.0500
     26 H26       -15.3174    2.8348   60.7016 H       1  ZINC000821214121    0.0600
     27 H27       -13.7736    2.4787   62.5640 H       1  ZINC000821214121    0.0900
     28 H28       -15.1967    1.4330   62.7869 H       1  ZINC000821214121    0.0400
     29 H29       -11.8803    1.6836   62.8370 H       1  ZINC000821214121    0.0400
     30 H30       -12.5173    0.5741   64.0746 H       1  ZINC000821214121    0.0800
     31 H31       -11.5786   -1.3508   62.7501 H       1  ZINC000821214121    0.0800
     32 H32       -10.8345   -0.1730   61.6425 H       1  ZINC000821214121    0.0700
     33 H33        -9.5524    0.8030   63.5049 H       1  ZINC000821214121    0.0400
     34 H34       -10.3351   -0.3124   64.6500 H       1  ZINC000821214121    0.0500
     35 H35        -8.2012   -1.1089   63.8640 H       1  ZINC000821214121    0.3800
     36 H36       -13.7498   -1.0960   63.5982 H       1  ZINC000821214121    0.0700
     37 H37       -15.2259   -0.4925   62.8078 H       1  ZINC000821214121    0.1200
     38 H38       -13.6172   -0.6092   60.0938 H       1  ZINC000821214121    0.4200
     39 H39        -8.3344   -2.4620   60.5384 H       1  ZINC000821214121    0.4700
     40 H40       -11.1980   -5.5623   57.8036 H       1  ZINC000821214121    0.0700
     41 H41       -11.8389   -5.0243   56.2326 H       1  ZINC000821214121    0.0700
     42 H42       -10.7025   -3.9904   57.1312 H       1  ZINC000821214121    0.0900
     43 H43       -14.4466   -6.3952   57.2317 H       1  ZINC000821214121    0.0700
     44 H44       -15.3697   -5.1778   56.3185 H       1  ZINC000821214121    0.0700
     45 H45       -13.6700   -5.5030   55.9016 H       1  ZINC000821214121    0.0800
@<TRIPOS>BOND
     1     1     2    1
     2     1    24    1
     3     1    25    1
     4     1    26    1
     5     2     3    1
     6     2    27    1
     7     2    28    1
     8     3     4    1
     9     3     8    1
    10     4     5    1
    11     4    29    1
    12     4    30    1
    13     5     6    1
    14     5    31    1
    15     5    32    1
    16     6     7    1
    17     6    33    1
    18     6    34    1
    19     7    35    1
    20     8     9    1
    21     8    36    1
    22     8    37    1
    23     9    10    2
    24     9    11   am
    25    11    12    1
    26    11    38    1
    27    12    23    1
    28    12    13    2
    29    13    14    1
    30    13    19    1
    31    14    18    1
    32    14    15    2
    33    15    16    1
    34    16    17    1
    35    16    39    1
    36    17    18    2
    37    19    20    1
    38    19    21    2
    39    20    40    1
    40    20    41    1
    41    20    42    1
    42    21    22    1
    43    21    23    1
    44    22    43    1
    45    22    44    1
    46    22    45    1
@<TRIPOS>SUBSTRUCTURE
     1 ZINC000821214121        1 TEMP              0 ****  ****    0 ROOT


##########                                Name:    ZINC000350493047
##########                DOCK_Rotatable_Bonds:                   7
##########                         Heavy_Atoms:                  24
##########                    Molecular_Weight:             330.387
##########                DOCK_Rotatable_Bonds:                   7
##########                       Formal_Charge:          -0.0300002
##########                     HBond_Acceptors:                   7
##########                        HBond_Donors:                   3
##########                         Heavy_Atoms:                  24
##########                          Grid_Score:          -33.929832
##########                     Grid_vdw_energy:          -33.483479
##########                      Grid_es_energy:           -0.446355
##########           Internal_energy_repulsive:            6.492175

@<TRIPOS>MOLECULE
ZINC000350493047
 46 48 1 0 0
SMALL
USER_CHARGES


@<TRIPOS>ATOM
      1 C1         -8.8218    0.6582   65.3646 C.3     1  <0>        -0.1600
      2 C2         -9.7620    0.8577   64.1742 C.3     1  <0>         0.2600
      3 H3         -9.5017    1.7809   63.6564 H       1  <0>         0.1200
      4 N4        -11.1445    0.9389   64.6520 N.am    1  <0>        -0.7400
      5 C5        -12.0839    1.5428   63.8977 C.2     1  <0>         0.7100
      6 N6        -13.3561    1.6161   64.3366 N.am    1  <0>        -0.8600
      7 O7        -11.7838    2.0218   62.8211 O.2     1  <0>        -0.5900
      8 C8         -9.6258   -0.3056   63.2259 C.2     1  <0>         0.1700
      9 N9         -8.9431   -1.3921   63.4368 N.2     1  <0>        -0.3800
     10 O10        -9.0296   -2.1396   62.4856 O.3     1  <0>         0.0900
     11 C11        -9.8040   -1.5822   61.5414 C.2     1  <0>         0.2400
     12 C12       -10.1581   -2.1671   60.2326 C.ar    1  <0>        -0.0800
     13 C13       -10.6360   -1.3489   59.2063 C.ar    1  <0>        -0.0200
     14 C14       -10.9653   -1.8983   57.9866 C.ar    1  <0>        -0.2200
     15 C15       -10.8231   -3.2645   57.7769 C.ar    1  <0>         0.1700
     16 O16       -11.1491   -3.8022   56.5735 O.3     1  <0>        -0.3000
     17 C17       -12.5367   -3.8389   56.2338 C.3     1  <0>         0.0800
     18 C18       -12.6905   -3.7927   54.7123 C.3     1  <0>        -0.1500
     19 C19       -14.1761   -3.8320   54.3486 C.3     1  <0>        -0.1200
     20 C20       -14.7986   -5.1225   54.8851 C.3     1  <0>        -0.1300
     21 C21       -14.6447   -5.1688   56.4067 C.3     1  <0>        -0.1200
     22 C22       -13.1591   -5.1295   56.7705 C.3     1  <0>        -0.1200
     23 C23       -10.3477   -4.0817   58.7951 C.ar    1  <0>        -0.1600
     24 C24       -10.0106   -3.5391   60.0157 C.ar    1  <0>        -0.0300
     25 N25       -10.1918   -0.4100   62.0136 N.2     1  <0>        -0.4700
     26 H26        -9.0821   -0.2651   65.8823 H       1  <0>         0.0600
     27 H27        -7.7932    0.5977   65.0090 H       1  <0>         0.0700
     28 H28        -8.9204    1.4995   66.0504 H       1  <0>         0.0800
     29 H29       -11.3837    0.5578   65.5113 H       1  <0>         0.4000
     30 H30       -14.0324    2.0498   63.7930 H       1  <0>         0.4000
     31 H31       -13.5955    1.2352   65.1959 H       1  <0>         0.4200
     32 H32       -10.7475   -0.2870   59.3688 H       1  <0>         0.1400
     33 H33       -11.3349   -1.2665   57.1926 H       1  <0>         0.1400
     34 H34       -13.0419   -2.9804   56.6764 H       1  <0>         0.0800
     35 H35       -12.2471   -2.8733   54.3300 H       1  <0>         0.0700
     36 H36       -12.1853   -4.6512   54.2698 H       1  <0>         0.0800
     37 H37       -14.6814   -2.9735   54.7912 H       1  <0>         0.0600
     38 H38       -14.2858   -3.7990   53.2646 H       1  <0>         0.0700
     39 H39       -15.8571   -5.1505   54.6260 H       1  <0>         0.0700
     40 H40       -14.2934   -5.9810   54.4426 H       1  <0>         0.0700
     41 H41       -15.1499   -4.3102   56.8492 H       1  <0>         0.0700
     42 H42       -15.0882   -6.0882   56.7889 H       1  <0>         0.0700
     43 H43       -12.6539   -5.9880   56.3279 H       1  <0>         0.0800
     44 H44       -13.0495   -5.1624   57.8544 H       1  <0>         0.0700
     45 H45       -10.2381   -5.1431   58.6279 H       1  <0>         0.1400
     46 H46        -9.6408   -4.1749   60.8065 H       1  <0>         0.1400
@<TRIPOS>BOND
     1     1     2    1
     2     1    26    1
     3     1    27    1
     4     1    28    1
     5     2     3    1
     6     2     4    1
     7     2     8    1
     8     4     5   am
     9     4    29    1
    10     5     6   am
    11     5     7    2
    12     6    30    1
    13     6    31    1
    14     8    25    1
    15     8     9    2
    16     9    10    1
    17    10    11    1
    18    11    12    1
    19    11    25    2
    20    12    24   ar
    21    12    13   ar
    22    13    14   ar
    23    13    32    1
    24    14    15   ar
    25    14    33    1
    26    15    16    1
    27    15    23   ar
    28    16    17    1
    29    17    22    1
    30    17    18    1
    31    17    34    1
    32    18    19    1
    33    18    35    1
    34    18    36    1
    35    19    20    1
    36    19    37    1
    37    19    38    1
    38    20    21    1
    39    20    39    1
    40    20    40    1
    41    21    22    1
    42    21    41    1
    43    21    42    1
    44    22    43    1
    45    22    44    1
    46    23    24   ar
    47    23    45    1
    48    24    46    1
@<TRIPOS>SUBSTRUCTURE
     1 <0>         1 TEMP              0 ****  ****    0 ROOT


##########                                Name:    ZINC000066361645
##########                DOCK_Rotatable_Bonds:                   8
##########                         Heavy_Atoms:                  27
##########                    Molecular_Weight:             392.519
##########                DOCK_Rotatable_Bonds:                   8
##########                       Formal_Charge:           0.0100004
##########                     HBond_Acceptors:                   7
##########                        HBond_Donors:                   2
##########                         Heavy_Atoms:                  27
##########                          Grid_Score:          -33.926609
##########                     Grid_vdw_energy:          -32.712440
##########                      Grid_es_energy:           -1.214167
##########           Internal_energy_repulsive:            6.669562

@<TRIPOS>MOLECULE
ZINC000066361645
 55 57 1 0 0
SMALL
USER_CHARGES


@<TRIPOS>ATOM
      1 C1        -14.5362   -5.6208   56.0417 C.3     1  ZINC000066361645   -0.1400
      2 S2        -13.2203   -4.9501   54.9887 S.3     1  ZINC000066361645   -0.1100
      3 C3        -12.2374   -4.0266   56.1224 C.ar    1  ZINC000066361645   -0.1200
      4 C4        -11.6011   -4.6693   57.1737 C.ar    1  ZINC000066361645   -0.1100
      5 C5        -10.8262   -3.9432   58.0665 C.ar    1  ZINC000066361645    0.0500
      6 C6        -10.6855   -2.5701   57.9070 C.ar    1  ZINC000066361645    0.0700
      7 C7        -11.3226   -1.9250   56.8570 C.ar    1  ZINC000066361645   -0.1100
      8 C8        -12.0932   -2.6490   55.9608 C.ar    1  ZINC000066361645    0.1800
      9 N9        -12.7366   -1.9951   54.8992 N.am    1  ZINC000066361645   -0.6600
     10 C10       -12.0323   -1.6187   53.8135 C.2     1  ZINC000066361645    0.5100
     11 O11       -10.8420   -1.8453   53.7542 O.2     1  ZINC000066361645   -0.5000
     12 C12       -12.7233   -0.9164   52.6733 C.3     1  ZINC000066361645   -0.1500
     13 C13       -12.5077    0.5932   52.7984 C.3     1  ZINC000066361645    0.1600
     14 H14       -12.3850    0.8569   53.8488 H       1  ZINC000066361645    0.1000
     15 C15       -13.7198    1.3307   52.2257 C.3     1  ZINC000066361645   -0.1600
     16 N16       -11.3057    0.9780   52.0546 N.am    1  ZINC000066361645   -0.7200
     17 C17       -10.3699    1.7516   52.6397 C.2     1  ZINC000066361645    0.5300
     18 O18       -10.5224    2.1281   53.7825 O.2     1  ZINC000066361645   -0.5400
     19 C19        -9.1343    2.1489   51.8740 C.3     1  ZINC000066361645   -0.1100
     20 C20        -8.6040    3.4780   52.4155 C.3     1  ZINC000066361645   -0.1100
     21 C21        -7.3495    3.8813   51.6380 C.3     1  ZINC000066361645   -0.1200
     22 C22        -6.2789    2.8006   51.8012 C.3     1  ZINC000066361645   -0.1200
     23 C23        -6.8092    1.4715   51.2596 C.3     1  ZINC000066361645   -0.1200
     24 C24        -8.0637    1.0681   52.0371 C.3     1  ZINC000066361645   -0.1000
     25 O25        -9.9221   -1.8431   58.7701 O.3     1  ZINC000066361645   -0.3000
     26 C26        -9.6026   -2.4589   60.0224 C.3     1  ZINC000066361645    0.0200
     27 C27        -9.1434   -3.8971   59.7472 C.3     1  ZINC000066361645    0.0200
     28 O28       -10.2121   -4.5915   59.0950 O.3     1  ZINC000066361645   -0.3100
     29 H29       -14.0965   -6.2448   56.8198 H       1  ZINC000066361645    0.0900
     30 H30       -15.0870   -4.8004   56.5019 H       1  ZINC000066361645    0.0900
     31 H31       -15.2162   -6.2202   55.4363 H       1  ZINC000066361645    0.1100
     32 H32       -11.7091   -5.7368   57.2977 H       1  ZINC000066361645    0.1400
     33 H33       -11.2149   -0.8573   56.7354 H       1  ZINC000066361645    0.1600
     34 H34       -13.6883   -1.8139   54.9466 H       1  ZINC000066361645    0.4100
     35 H35       -12.3095   -1.2653   51.7273 H       1  ZINC000066361645    0.1000
     36 H36       -13.7908   -1.1348   52.7055 H       1  ZINC000066361645    0.1200
     37 H37       -13.8425    1.0670   51.1752 H       1  ZINC000066361645    0.0600
     38 H38       -14.6141    1.0443   52.7790 H       1  ZINC000066361645    0.0700
     39 H39       -13.5661    2.4061   52.3147 H       1  ZINC000066361645    0.0700
     40 H40       -11.1832    0.6760   51.1409 H       1  ZINC000066361645    0.4000
     41 H41        -9.3811    2.2594   50.8180 H       1  ZINC000066361645    0.1000
     42 H42        -9.3666    4.2480   52.2993 H       1  ZINC000066361645    0.0600
     43 H43        -8.3571    3.3675   53.4714 H       1  ZINC000066361645    0.0700
     44 H44        -7.5963    3.9918   50.5821 H       1  ZINC000066361645    0.0600
     45 H45        -6.9716    4.8281   52.0238 H       1  ZINC000066361645    0.0700
     46 H46        -5.3852    3.0880   51.2472 H       1  ZINC000066361645    0.0600
     47 H47        -6.0321    2.6900   52.8570 H       1  ZINC000066361645    0.0600
     48 H48        -7.0561    1.5820   50.2036 H       1  ZINC000066361645    0.0600
     49 H49        -6.0465    0.7015   51.3757 H       1  ZINC000066361645    0.0700
     50 H50        -7.8169    0.9577   53.0930 H       1  ZINC000066361645    0.0700
     51 H51        -8.4415    0.1213   51.6512 H       1  ZINC000066361645    0.0700
     52 H52        -8.8014   -1.9044   60.5110 H       1  ZINC000066361645    0.1300
     53 H53       -10.4852   -2.4708   60.6620 H       1  ZINC000066361645    0.0800
     54 H54        -8.2649   -3.8854   59.1022 H       1  ZINC000066361645    0.0800
     55 H55        -8.9030   -4.3927   60.6879 H       1  ZINC000066361645    0.1200
@<TRIPOS>BOND
     1     1     2    1
     2     1    29    1
     3     1    30    1
     4     1    31    1
     5     2     3    1
     6     3     8   ar
     7     3     4   ar
     8     4     5   ar
     9     4    32    1
    10     5    28    1
    11     5     6   ar
    12     6     7   ar
    13     6    25    1
    14     7     8   ar
    15     7    33    1
    16     8     9    1
    17     9    10   am
    18     9    34    1
    19    10    11    2
    20    10    12    1
    21    12    13    1
    22    12    35    1
    23    12    36    1
    24    13    14    1
    25    13    15    1
    26    13    16    1
    27    15    37    1
    28    15    38    1
    29    15    39    1
    30    16    17   am
    31    16    40    1
    32    17    18    2
    33    17    19    1
    34    19    24    1
    35    19    20    1
    36    19    41    1
    37    20    21    1
    38    20    42    1
    39    20    43    1
    40    21    22    1
    41    21    44    1
    42    21    45    1
    43    22    23    1
    44    22    46    1
    45    22    47    1
    46    23    24    1
    47    23    48    1
    48    23    49    1
    49    24    50    1
    50    24    51    1
    51    25    26    1
    52    26    27    1
    53    26    52    1
    54    26    53    1
    55    27    28    1
    56    27    54    1
    57    27    55    1
@<TRIPOS>SUBSTRUCTURE
     1 ZINC000066361645        1 TEMP              0 ****  ****    0 ROOT


##########                                Name:    ZINC000004313955
##########                DOCK_Rotatable_Bonds:                   6
##########                         Heavy_Atoms:                  26
##########                    Molecular_Weight:             414.358
##########                DOCK_Rotatable_Bonds:                   6
##########                       Formal_Charge:           0.0299997
##########                     HBond_Acceptors:                   9
##########                        HBond_Donors:                   2
##########                         Heavy_Atoms:                  26
##########                          Grid_Score:          -33.899818
##########                     Grid_vdw_energy:          -32.834293
##########                      Grid_es_energy:           -1.065527
##########           Internal_energy_repulsive:            9.959321

@<TRIPOS>MOLECULE
ZINC000004313955
 47 49 1 0 0
SMALL
USER_CHARGES


@<TRIPOS>ATOM
      1 C1        -14.3503   -0.2785   63.3575 C.3     1  ZINC000004313955   -0.1500
      2 C2        -12.9329    0.0228   62.8661 C.3     1  ZINC000004313955   -0.1100
      3 H3        -12.2089   -0.3973   63.5642 H       1  ZINC000004313955    0.0800
      4 C4        -12.7351    1.5376   62.7749 C.3     1  ZINC000004313955   -0.1100
      5 C5        -11.3072    1.8405   62.3150 C.3     1  ZINC000004313955   -0.1100
      6 H6        -11.1599    2.9197   62.2728 H       1  ZINC000004313955    0.0900
      7 C7        -10.3119    1.2274   63.3021 C.3     1  ZINC000004313955   -0.1500
      8 C8        -11.0848    1.2393   60.9236 C.3     1  ZINC000004313955    0.1200
      9 N9        -11.4133   -0.1921   60.9691 N.am    1  ZINC000004313955   -0.6000
     10 C10       -10.5244   -1.1143   60.5495 C.2     1  ZINC000004313955    0.5400
     11 O11        -9.4420   -0.7654   60.1281 O.2     1  ZINC000004313955   -0.5300
     12 C12       -10.8755   -2.5788   60.6040 C.3     1  ZINC000004313955   -0.1400
     13 S13        -9.6117   -3.5351   59.7297 S.3     1  ZINC000004313955    0.0800
     14 C14       -10.5703   -4.1529   58.3866 C.2     1  ZINC000004313955    0.1100
     15 N15       -10.7866   -5.4170   58.0997 N.2     1  ZINC000004313955   -0.2800
     16 N16       -11.5289   -5.5118   57.0549 N.2     1  ZINC000004313955   -0.2400
     17 C17       -11.8323   -4.3144   56.6106 C.2     1  ZINC000004313955    0.2500
     18 C18       -12.6660   -4.0002   55.4310 C.ar    1  ZINC000004313955   -0.0100
     19 C19       -12.0677   -3.7703   54.1914 C.ar    1  ZINC000004313955   -0.0700
     20 C20       -12.8509   -3.4774   53.0941 C.ar    1  ZINC000004313955   -0.1100
     21 C21       -14.2281   -3.4108   53.2203 C.ar    1  ZINC000004313955   -0.0100
     22 Cl22      -15.2061   -3.0411   51.8344 Cl      1  ZINC000004313955   -0.0500
     23 C23       -14.8287   -3.6383   54.4470 C.ar    1  ZINC000004313955   -0.1100
     24 C24       -14.0565   -3.9379   55.5513 C.ar    1  ZINC000004313955    0.0100
     25 Cl25      -14.8104   -4.2227   57.0889 Cl      1  ZINC000004313955   -0.0100
     26 N26       -11.2321   -3.4071   57.4529 N.pl3   1  ZINC000004313955   -0.3000
     27 N27       -11.2813   -2.0446   57.3684 N.3     1  ZINC000004313955   -0.5800
     28 C28       -12.7287   -0.5998   61.4814 C.3     1  ZINC000004313955    0.1100
     29 H29       -14.4911   -1.3575   63.4211 H       1  ZINC000004313955    0.0600
     30 H30       -14.4955    0.1657   64.3421 H       1  ZINC000004313955    0.0600
     31 H31       -15.0739    0.1418   62.6590 H       1  ZINC000004313955    0.0600
     32 H32       -13.4434    1.9539   62.0586 H       1  ZINC000004313955    0.0700
     33 H33       -12.9040    1.9854   63.7542 H       1  ZINC000004313955    0.0700
     34 H34       -10.4589    0.1481   63.3431 H       1  ZINC000004313955    0.0600
     35 H35        -9.2951    1.4434   62.9741 H       1  ZINC000004313955    0.0600
     36 H36       -10.4726    1.6539   64.2923 H       1  ZINC000004313955    0.0600
     37 H37       -11.7304    1.7397   60.2020 H       1  ZINC000004313955    0.0700
     38 H38       -10.0418    1.3658   60.6334 H       1  ZINC000004313955    0.1000
     39 H39       -10.9218   -2.9028   61.6437 H       1  ZINC000004313955    0.1300
     40 H40       -11.8442   -2.7380   60.1303 H       1  ZINC000004313955    0.1300
     41 H41       -10.9935   -3.8212   54.0913 H       1  ZINC000004313955    0.1600
     42 H42       -12.3885   -3.2993   52.1344 H       1  ZINC000004313955    0.1500
     43 H43       -15.9034   -3.5849   54.5393 H       1  ZINC000004313955    0.1500
     44 H44       -12.1990   -1.7326   57.0881 H       1  ZINC000004313955    0.3700
     45 H45       -11.0050   -1.6181   58.2401 H       1  ZINC000004313955    0.3800
     46 H46       -12.7699   -1.6863   61.5585 H       1  ZINC000004313955    0.0900
     47 H47       -13.5087   -0.2495   60.8054 H       1  ZINC000004313955    0.0800
@<TRIPOS>BOND
     1     1     2    1
     2     1    29    1
     3     1    30    1
     4     1    31    1
     5     2     3    1
     6     2    28    1
     7     2     4    1
     8     4     5    1
     9     4    32    1
    10     4    33    1
    11     5     6    1
    12     5     7    1
    13     5     8    1
    14     7    34    1
    15     7    35    1
    16     7    36    1
    17     8     9    1
    18     8    37    1
    19     8    38    1
    20     9    10   am
    21     9    28    1
    22    10    11    2
    23    10    12    1
    24    12    13    1
    25    12    39    1
    26    12    40    1
    27    13    14    1
    28    14    26    1
    29    14    15    2
    30    15    16    1
    31    16    17    2
    32    17    18    1
    33    17    26    1
    34    18    24   ar
    35    18    19   ar
    36    19    20   ar
    37    19    41    1
    38    20    21   ar
    39    20    42    1
    40    21    22    1
    41    21    23   ar
    42    23    24   ar
    43    23    43    1
    44    24    25    1
    45    26    27    1
    46    27    44    1
    47    27    45    1
    48    28    46    1
    49    28    47    1
@<TRIPOS>SUBSTRUCTURE
     1 ZINC000004313955        1 TEMP              0 ****  ****    0 ROOT


##########                                Name:    ZINC001110536231
##########                DOCK_Rotatable_Bonds:                   8
##########                         Heavy_Atoms:                  24
##########                    Molecular_Weight:             329.442
##########                DOCK_Rotatable_Bonds:                   8
##########                       Formal_Charge:          -0.0400001
##########                     HBond_Acceptors:                   5
##########                        HBond_Donors:                   1
##########                         Heavy_Atoms:                  24
##########                          Grid_Score:          -33.892239
##########                     Grid_vdw_energy:          -33.615322
##########                      Grid_es_energy:           -0.276918
##########           Internal_energy_repulsive:           27.289608

@<TRIPOS>MOLECULE
ZINC001110536231
 51 53 1 0 0
SMALL
USER_CHARGES


@<TRIPOS>ATOM
      1 C1        -12.9303   -0.4790   52.0342 C.3     1  ZINC001110536231   -0.1300
      2 C2        -12.0311   -0.7475   53.2427 C.3     1  ZINC001110536231   -0.1000
      3 C3        -10.9019   -1.6588   52.8360 C.2     1  ZINC001110536231   -0.0200
      4 C4         -9.6729   -1.0877   52.1766 C.3     1  ZINC001110536231   -0.1300
      5 C5        -10.9897   -2.9670   53.0590 C.2     1  ZINC001110536231   -0.2400
      6 C6        -12.1892   -3.5243   53.7027 C.2     1  ZINC001110536231    0.5400
      7 O7        -13.0274   -4.0979   53.0338 O.2     1  ZINC001110536231   -0.5300
      8 N8        -12.3593   -3.3994   55.0339 N.am    1  ZINC001110536231   -0.7300
      9 C9        -13.5531   -3.9560   55.6752 C.3     1  ZINC001110536231    0.1100
     10 H10       -14.2152   -4.3996   54.9316 H       1  ZINC001110536231    0.1000
     11 C11       -14.2958   -2.8650   56.4848 C.3     1  ZINC001110536231   -0.1600
     12 C12       -14.2482   -3.4010   57.9474 C.3     1  ZINC001110536231    0.0500
     13 H13       -14.3867   -2.6526   58.7278 H       1  ZINC001110536231    0.1200
     14 C14       -15.2508   -4.5940   57.9737 C.3     1  ZINC001110536231   -0.1200
     15 C15       -14.5252   -5.6944   57.1612 C.3     1  ZINC001110536231   -0.1100
     16 C16       -13.1561   -5.0085   56.7539 C.3     1  ZINC001110536231    0.0400
     17 H17       -12.3475   -5.6909   56.4917 H       1  ZINC001110536231    0.1200
     18 N18       -12.9219   -4.1154   57.9496 N.3     1  ZINC001110536231   -0.4900
     19 C19       -11.8083   -3.1890   57.7047 C.3     1  ZINC001110536231    0.0600
     20 C20       -11.0399   -2.9781   58.9837 C.ar    1  ZINC001110536231    0.0100
     21 C21        -9.8390   -3.6369   59.2073 C.ar    1  ZINC001110536231   -0.2100
     22 C22        -9.1599   -3.4208   60.3900 C.ar    1  ZINC001110536231    0.1400
     23 N23        -9.6387   -2.5990   61.3044 N.ar    1  ZINC001110536231   -0.5400
     24 C24       -10.7796   -1.9531   61.1278 C.ar    1  ZINC001110536231    0.3200
     25 O25       -11.2348   -1.1169   62.0945 O.3     1  ZINC001110536231   -0.3100
     26 C26       -10.2605   -0.3323   62.7852 C.3     1  ZINC001110536231    0.0400
     27 C27       -11.5130   -2.1185   59.9602 C.ar    1  ZINC001110536231   -0.1700
     28 H28       -13.7469    0.1802   52.3284 H       1  ZINC001110536231    0.0500
     29 H29       -12.3465   -0.0045   51.2454 H       1  ZINC001110536231    0.0700
     30 H30       -13.3378   -1.4212   51.6680 H       1  ZINC001110536231    0.0400
     31 H31       -11.6236    0.1948   53.6089 H       1  ZINC001110536231    0.0900
     32 H32       -12.6148   -1.2219   54.0315 H       1  ZINC001110536231    0.0600
     33 H33        -8.9413   -0.8221   52.9397 H       1  ZINC001110536231    0.0800
     34 H34        -9.2432   -1.8302   51.5040 H       1  ZINC001110536231    0.0700
     35 H35        -9.9454   -0.1979   51.6091 H       1  ZINC001110536231    0.0700
     36 H36       -10.1804   -3.6200   52.7676 H       1  ZINC001110536231    0.1200
     37 H37       -11.6914   -2.9409   55.5673 H       1  ZINC001110536231    0.4000
     38 H38       -13.7758   -1.9101   56.4090 H       1  ZINC001110536231    0.0700
     39 H39       -15.3269   -2.7698   56.1444 H       1  ZINC001110536231    0.0800
     40 H40       -15.4262   -4.9254   58.9971 H       1  ZINC001110536231    0.0700
     41 H41       -16.1889   -4.3174   57.4926 H       1  ZINC001110536231    0.0700
     42 H42       -14.3411   -6.5712   57.7819 H       1  ZINC001110536231    0.0800
     43 H43       -15.1038   -5.9632   56.2774 H       1  ZINC001110536231    0.0700
     44 H44       -11.1459   -3.6092   56.9479 H       1  ZINC001110536231    0.0900
     45 H45       -12.2004   -2.2341   57.3547 H       1  ZINC001110536231    0.0700
     46 H46        -9.4401   -4.3116   58.4643 H       1  ZINC001110536231    0.1300
     47 H47        -8.2251   -3.9312   60.5690 H       1  ZINC001110536231    0.1600
     48 H48       -10.7568    0.2905   63.5295 H       1  ZINC001110536231    0.1000
     49 H49        -9.5475   -0.9917   63.2802 H       1  ZINC001110536231    0.0600
     50 H50        -9.7339    0.3028   62.0728 H       1  ZINC001110536231    0.0600
     51 H51       -12.4439   -1.5894   59.8191 H       1  ZINC001110536231    0.1400
@<TRIPOS>BOND
     1     1     2    1
     2     1    28    1
     3     1    29    1
     4     1    30    1
     5     2     3    1
     6     2    31    1
     7     2    32    1
     8     3     4    1
     9     3     5    2
    10     4    33    1
    11     4    34    1
    12     4    35    1
    13     5     6    1
    14     5    36    1
    15     6     7    2
    16     6     8   am
    17     8     9    1
    18     8    37    1
    19     9    10    1
    20     9    16    1
    21     9    11    1
    22    11    12    1
    23    11    38    1
    24    11    39    1
    25    12    13    1
    26    12    18    1
    27    12    14    1
    28    14    15    1
    29    14    40    1
    30    14    41    1
    31    15    16    1
    32    15    42    1
    33    15    43    1
    34    16    17    1
    35    16    18    1
    36    18    19    1
    37    19    20    1
    38    19    44    1
    39    19    45    1
    40    20    27   ar
    41    20    21   ar
    42    21    22   ar
    43    21    46    1
    44    22    23   ar
    45    22    47    1
    46    23    24   ar
    47    24    25    1
    48    24    27   ar
    49    25    26    1
    50    26    48    1
    51    26    49    1
    52    26    50    1
    53    27    51    1
@<TRIPOS>SUBSTRUCTURE
     1 ZINC001110536231        1 TEMP              0 ****  ****    0 ROOT


##########                                Name:    ZINC001362451754
##########                DOCK_Rotatable_Bonds:                   6
##########                         Heavy_Atoms:                  22
##########                    Molecular_Weight:             339.846
##########                DOCK_Rotatable_Bonds:                   6
##########                       Formal_Charge:         -0.00999987
##########                     HBond_Acceptors:                   7
##########                        HBond_Donors:                   1
##########                         Heavy_Atoms:                  22
##########                          Grid_Score:          -33.884109
##########                     Grid_vdw_energy:          -33.255390
##########                      Grid_es_energy:           -0.628718
##########           Internal_energy_repulsive:           15.852344

@<TRIPOS>MOLECULE
ZINC001362451754
 40 42 1 0 0
SMALL
USER_CHARGES


@<TRIPOS>ATOM
      1 C1         -9.1486   -3.4922   60.1197 C.3     1  ZINC001362451754   -0.1700
      2 C2        -10.6634   -3.2872   60.1856 C.3     1  ZINC001362451754    0.1400
      3 H3        -11.1176   -4.0608   60.8048 H       1  ZINC001362451754    0.0800
      4 C4        -10.9796   -1.8943   60.7698 C.3     1  ZINC001362451754   -0.1000
      5 H5        -11.8776   -1.9297   61.3868 H       1  ZINC001362451754    0.1000
      6 C6         -9.7908   -1.3610   61.5718 C.3     1  ZINC001362451754    0.0900
      7 O7        -10.1171   -0.0788   62.1118 O.3     1  ZINC001362451754   -0.5700
      8 C8        -11.2180   -1.0318   59.5024 C.3     1  ZINC001362451754   -0.1200
      9 C9        -11.9020   -2.0472   58.5568 C.3     1  ZINC001362451754    0.0900
     10 N10       -11.2334   -3.3321   58.8311 N.am    1  ZINC001362451754   -0.6100
     11 C11       -11.1529   -4.3734   57.9791 C.2     1  ZINC001362451754    0.6100
     12 O12       -10.5734   -5.3899   58.3137 O.2     1  ZINC001362451754   -0.5200
     13 C13       -11.7634   -4.2814   56.6497 C.2     1  ZINC001362451754   -0.2500
     14 C14       -12.9003   -4.9274   56.2530 C.2     1  ZINC001362451754   -0.0500
     15 C15       -13.2466   -4.6669   54.9484 C.2     1  ZINC001362451754   -0.1100
     16 C16       -12.4291   -3.8285   54.3006 C.2     1  ZINC001362451754   -0.2500
     17 C17       -12.6103   -3.3950   52.8688 C.3     1  ZINC001362451754    0.2100
     18 N18       -11.7091   -2.2767   52.5794 N.pl3   1  ZINC001362451754   -0.3700
     19 C19       -10.4065   -2.3741   52.2371 C.2     1  ZINC001362451754    0.0700
     20 C20        -9.9340   -1.1191   52.0519 C.2     1  ZINC001362451754   -0.1800
     21 Cl21       -8.3135   -0.6944   51.5962 Cl      1  ZINC001362451754   -0.0400
     22 C22       -10.9811   -0.2243   52.2987 C.2     1  ZINC001362451754    0.0700
     23 N23       -12.0451   -0.9171   52.6148 N.2     1  ZINC001362451754   -0.2700
     24 S24       -11.1498   -3.3224   55.3096 S.3     1  ZINC001362451754    0.2300
     25 H25        -8.7042   -2.7183   59.4938 H       1  ZINC001362451754    0.0600
     26 H26        -8.7298   -3.4320   61.1242 H       1  ZINC001362451754    0.0700
     27 H27        -8.9327   -4.4721   59.6941 H       1  ZINC001362451754    0.0700
     28 H28        -9.5624   -2.0502   62.3848 H       1  ZINC001362451754    0.0500
     29 H29        -8.9232   -1.2699   60.9182 H       1  ZINC001362451754    0.0500
     30 H30        -9.4681    0.2583   62.7444 H       1  ZINC001362451754    0.3800
     31 H31       -11.8780   -0.1919   59.7198 H       1  ZINC001362451754    0.0900
     32 H32       -10.2738   -0.6855   59.0821 H       1  ZINC001362451754    0.0800
     33 H33       -11.7539   -1.7570   57.5166 H       1  ZINC001362451754    0.0800
     34 H34       -12.9657   -2.1169   58.7843 H       1  ZINC001362451754    0.0800
     35 H35       -13.4678   -5.5811   56.8987 H       1  ZINC001362451754    0.1600
     36 H36       -14.1170   -5.1039   54.4815 H       1  ZINC001362451754    0.1500
     37 H37       -12.3799   -4.2283   52.2049 H       1  ZINC001362451754    0.1100
     38 H38       -13.6419   -3.0801   52.7122 H       1  ZINC001362451754    0.1100
     39 H39        -9.8433   -3.2891   52.1281 H       1  ZINC001362451754    0.1800
     40 H40       -10.9213    0.8525   52.2389 H       1  ZINC001362451754    0.1900
@<TRIPOS>BOND
     1     1     2    1
     2     1    25    1
     3     1    26    1
     4     1    27    1
     5     2     3    1
     6     2    10    1
     7     2     4    1
     8     4     5    1
     9     4     6    1
    10     4     8    1
    11     6     7    1
    12     6    28    1
    13     6    29    1
    14     7    30    1
    15     8     9    1
    16     8    31    1
    17     8    32    1
    18     9    10    1
    19     9    33    1
    20     9    34    1
    21    10    11   am
    22    11    12    2
    23    11    13    1
    24    13    24    1
    25    13    14    2
    26    14    15    1
    27    14    35    1
    28    15    16    2
    29    15    36    1
    30    16    17    1
    31    16    24    1
    32    17    18    1
    33    17    37    1
    34    17    38    1
    35    18    23    1
    36    18    19    1
    37    19    20    2
    38    19    39    1
    39    20    21    1
    40    20    22    1
    41    22    23    2
    42    22    40    1
@<TRIPOS>SUBSTRUCTURE
     1 ZINC001362451754        1 TEMP              0 ****  ****    0 ROOT


##########                                Name:    ZINC000123469372
##########                DOCK_Rotatable_Bonds:                   7
##########                         Heavy_Atoms:                  25
##########                    Molecular_Weight:             341.382
##########                DOCK_Rotatable_Bonds:                   7
##########                       Formal_Charge:          -0.0300001
##########                     HBond_Acceptors:                   5
##########                        HBond_Donors:                   2
##########                         Heavy_Atoms:                  25
##########                          Grid_Score:          -33.877991
##########                     Grid_vdw_energy:          -33.729649
##########                      Grid_es_energy:           -0.148343
##########           Internal_energy_repulsive:           12.501717

@<TRIPOS>MOLECULE
ZINC000123469372
 45 47 1 0 0
SMALL
USER_CHARGES


@<TRIPOS>ATOM
      1 C1        -12.9350   -4.5782   55.7173 C.3     1  ZINC000123469372   -0.1700
      2 C2        -11.6905   -3.6967   55.5942 C.3     1  ZINC000123469372    0.1500
      3 H3        -10.8309   -4.3156   55.3371 H       1  ZINC000123469372    0.0900
      4 C4        -11.9121   -2.6515   54.4991 C.3     1  ZINC000123469372   -0.1600
      5 C5        -11.8771   -3.3325   53.1296 C.3     1  ZINC000123469372    0.1500
      6 H6        -12.0114   -4.4069   53.2545 H       1  ZINC000123469372    0.1100
      7 O7        -10.6176   -3.0794   52.5037 O.3     1  ZINC000123469372   -0.5500
      8 C8        -12.9854   -2.7846   52.2676 C.ar    1  ZINC000123469372   -0.1200
      9 C9        -14.3007   -2.9002   52.6769 C.ar    1  ZINC000123469372   -0.1100
     10 C10       -15.3172   -2.3976   51.8862 C.ar    1  ZINC000123469372   -0.1200
     11 C11       -15.0184   -1.7792   50.6866 C.ar    1  ZINC000123469372   -0.1200
     12 C12       -13.7030   -1.6628   50.2779 C.ar    1  ZINC000123469372   -0.1200
     13 C13       -12.6861   -2.1615   51.0705 C.ar    1  ZINC000123469372   -0.1100
     14 N14       -11.4420   -3.0218   56.8705 N.am    1  ZINC000123469372   -0.7100
     15 C15       -10.9827   -3.7233   57.9256 C.2     1  ZINC000123469372    0.5700
     16 O16       -10.7757   -4.9181   57.8185 O.2     1  ZINC000123469372   -0.5400
     17 C17       -10.7330   -3.0493   59.1991 C.2     1  ZINC000123469372   -0.2200
     18 C18       -11.6285   -2.1533   59.6825 C.2     1  ZINC000123469372    0.0000
     19 C19       -11.3175   -1.4897   60.9582 C.ar    1  ZINC000123469372   -0.1200
     20 C20       -12.2989   -0.8221   61.6894 C.ar    1  ZINC000123469372   -0.0900
     21 C21       -11.9615   -0.2124   62.8827 C.ar    1  ZINC000123469372    0.0700
     22 F22       -12.9068    0.4363   63.5973 F       1  ZINC000123469372   -0.1400
     23 C23       -10.6566   -0.2638   63.3504 C.ar    1  ZINC000123469372   -0.1100
     24 C24        -9.6765   -0.9236   62.6316 C.ar    1  ZINC000123469372   -0.1200
     25 C25        -9.9961   -1.5397   61.4355 C.ar    1  ZINC000123469372    0.1300
     26 O26        -9.0574   -2.1939   60.7074 O.3     1  ZINC000123469372   -0.3000
     27 C27        -9.4825   -3.3521   59.9829 C.3     1  ZINC000123469372    0.1100
     28 H28       -13.1199   -5.0804   54.7676 H       1  ZINC000123469372    0.0700
     29 H29       -12.7771   -5.3228   56.4974 H       1  ZINC000123469372    0.0600
     30 H30       -13.7947   -3.9593   55.9744 H       1  ZINC000123469372    0.0600
     31 H31       -12.8815   -2.1744   54.6431 H       1  ZINC000123469372    0.0900
     32 H32       -11.1255   -1.8987   54.5508 H       1  ZINC000123469372    0.0800
     33 H33        -9.8752   -3.5466   52.9109 H       1  ZINC000123469372    0.3700
     34 H34       -14.5341   -3.3834   53.6141 H       1  ZINC000123469372    0.1200
     35 H35       -16.3449   -2.4886   52.2056 H       1  ZINC000123469372    0.1200
     36 H36       -15.8126   -1.3872   50.0686 H       1  ZINC000123469372    0.1200
     37 H37       -13.4695   -1.1798   49.3405 H       1  ZINC000123469372    0.1200
     38 H38       -11.6584   -2.0705   50.7512 H       1  ZINC000123469372    0.1200
     39 H39       -11.6082   -2.0700   56.9562 H       1  ZINC000123469372    0.4000
     40 H40       -12.5408   -1.9334   59.1479 H       1  ZINC000123469372    0.1500
     41 H41       -13.3151   -0.7813   61.3258 H       1  ZINC000123469372    0.1500
     42 H42       -10.4036    0.2160   64.2842 H       1  ZINC000123469372    0.1500
     43 H43        -8.6632   -0.9575   63.0036 H       1  ZINC000123469372    0.1500
     44 H44        -9.6764   -4.1643   60.6834 H       1  ZINC000123469372    0.0800
     45 H45        -8.6943   -3.6554   59.2936 H       1  ZINC000123469372    0.1100
@<TRIPOS>BOND
     1     1     2    1
     2     1    28    1
     3     1    29    1
     4     1    30    1
     5     2     3    1
     6     2     4    1
     7     2    14    1
     8     4     5    1
     9     4    31    1
    10     4    32    1
    11     5     6    1
    12     5     7    1
    13     5     8    1
    14     7    33    1
    15     8    13   ar
    16     8     9   ar
    17     9    10   ar
    18     9    34    1
    19    10    11   ar
    20    10    35    1
    21    11    12   ar
    22    11    36    1
    23    12    13   ar
    24    12    37    1
    25    13    38    1
    26    14    15   am
    27    14    39    1
    28    15    16    2
    29    15    17    1
    30    17    27    1
    31    17    18    2
    32    18    19    1
    33    18    40    1
    34    19    25   ar
    35    19    20   ar
    36    20    21   ar
    37    20    41    1
    38    21    22    1
    39    21    23   ar
    40    23    24   ar
    41    23    42    1
    42    24    25   ar
    43    24    43    1
    44    25    26    1
    45    26    27    1
    46    27    44    1
    47    27    45    1
@<TRIPOS>SUBSTRUCTURE
     1 ZINC000123469372        1 TEMP              0 ****  ****    0 ROOT


##########                                Name:    ZINC000279331220
##########                DOCK_Rotatable_Bonds:                   9
##########                         Heavy_Atoms:                  24
##########                    Molecular_Weight:             328.411
##########                DOCK_Rotatable_Bonds:                   9
##########                       Formal_Charge:          -0.0100001
##########                     HBond_Acceptors:                   5
##########                        HBond_Donors:                   0
##########                         Heavy_Atoms:                  24
##########                          Grid_Score:          -33.840935
##########                     Grid_vdw_energy:          -34.190178
##########                      Grid_es_energy:            0.349243
##########           Internal_energy_repulsive:           19.995152

@<TRIPOS>MOLECULE
ZINC000279331220
 48 49 1 0 0
SMALL
USER_CHARGES


@<TRIPOS>ATOM
      1 C1        -11.2372    2.5472   55.6959 C.3     1  ZINC000279331220   -0.1500
      2 C2        -10.1890    2.2262   54.6287 C.3     1  ZINC000279331220    0.0500
      3 O3        -10.3953    0.8983   54.1427 O.3     1  ZINC000279331220   -0.3000
      4 C4         -9.5022    0.4289   53.2309 C.ar    1  ZINC000279331220    0.1000
      5 C5         -8.4754    1.2433   52.7820 C.ar    1  ZINC000279331220   -0.1700
      6 C6         -7.5678    0.7643   51.8552 C.ar    1  ZINC000279331220   -0.1200
      7 C7         -7.6825   -0.5264   51.3744 C.ar    1  ZINC000279331220   -0.1200
      8 C8         -8.7054   -1.3445   51.8180 C.ar    1  ZINC000279331220   -0.1700
      9 C9         -9.6142   -0.8729   52.7510 C.ar    1  ZINC000279331220    0.1000
     10 O10       -10.6207   -1.6761   53.1882 O.3     1  ZINC000279331220   -0.3000
     11 C11       -10.8100   -2.9131   52.4982 C.3     1  ZINC000279331220    0.0600
     12 C12       -12.0346   -3.6324   53.0672 C.3     1  ZINC000279331220   -0.1100
     13 C13       -11.8723   -3.7973   54.5795 C.3     1  ZINC000279331220   -0.1300
     14 C14       -12.9851   -4.6623   55.1129 C.2     1  ZINC000279331220    0.5200
     15 O15       -13.7800   -5.1671   54.3488 O.2     1  ZINC000279331220   -0.5200
     16 N16       -13.0969   -4.8748   56.4391 N.am    1  ZINC000279331220   -0.5700
     17 C17       -14.1777   -5.7171   56.9573 C.3     1  ZINC000279331220    0.0800
     18 C18       -12.1842   -4.2931   57.3177 C.ar    1  ZINC000279331220    0.3400
     19 N19       -11.1154   -4.9744   57.6987 N.ar    1  ZINC000279331220   -0.4800
     20 C20       -10.2272   -4.4613   58.5285 C.ar    1  ZINC000279331220    0.1100
     21 C21       -10.3833   -3.1853   59.0323 C.ar    1  ZINC000279331220   -0.1600
     22 C22       -11.4913   -2.4373   58.6572 C.ar    1  ZINC000279331220   -0.0700
     23 C23       -12.4022   -3.0005   57.7812 C.ar    1  ZINC000279331220   -0.1200
     24 C24       -13.6199   -2.2278   57.3444 C.3     1  ZINC000279331220   -0.1100
     25 H25       -11.0799    3.5600   56.0667 H       1  ZINC000279331220    0.0800
     26 H26       -12.2338    2.4701   55.2612 H       1  ZINC000279331220    0.0700
     27 H27       -11.1448    1.8401   56.5203 H       1  ZINC000279331220    0.0700
     28 H28       -10.2814    2.9333   53.8044 H       1  ZINC000279331220    0.0600
     29 H29        -9.1923    2.3032   55.0635 H       1  ZINC000279331220    0.0600
     30 H30        -8.3840    2.2525   53.1556 H       1  ZINC000279331220    0.1300
     31 H31        -6.7678    1.4002   51.5060 H       1  ZINC000279331220    0.1300
     32 H32        -6.9718   -0.8968   50.6503 H       1  ZINC000279331220    0.1300
     33 H33        -8.7930   -2.3525   51.4402 H       1  ZINC000279331220    0.1300
     34 H34       -10.9641   -2.7172   51.4370 H       1  ZINC000279331220    0.0600
     35 H35        -9.9277   -3.5400   52.6275 H       1  ZINC000279331220    0.0600
     36 H36       -12.9296   -3.0458   52.8596 H       1  ZINC000279331220    0.0800
     37 H37       -12.1277   -4.6140   52.6026 H       1  ZINC000279331220    0.0800
     38 H38       -10.9124   -4.2676   54.7928 H       1  ZINC000279331220    0.1000
     39 H39       -11.9115   -2.8187   55.0580 H       1  ZINC000279331220    0.1000
     40 H40       -13.8742   -6.7633   56.9171 H       1  ZINC000279331220    0.0700
     41 H41       -14.3911   -5.4402   57.9897 H       1  ZINC000279331220    0.0800
     42 H42       -15.0720   -5.5748   56.3506 H       1  ZINC000279331220    0.0800
     43 H43        -9.3673   -5.0471   58.8178 H       1  ZINC000279331220    0.1600
     44 H44        -9.6514   -2.7734   59.7113 H       1  ZINC000279331220    0.1400
     45 H45       -11.6364   -1.4368   59.0371 H       1  ZINC000279331220    0.1400
     46 H46       -13.4142   -1.7308   56.3962 H       1  ZINC000279331220    0.0800
     47 H47       -14.4595   -2.9119   57.2213 H       1  ZINC000279331220    0.0700
     48 H48       -13.8669   -1.4815   58.0995 H       1  ZINC000279331220    0.0700
@<TRIPOS>BOND
     1     1     2    1
     2     1    25    1
     3     1    26    1
     4     1    27    1
     5     2     3    1
     6     2    28    1
     7     2    29    1
     8     3     4    1
     9     4     9   ar
    10     4     5   ar
    11     5     6   ar
    12     5    30    1
    13     6     7   ar
    14     6    31    1
    15     7     8   ar
    16     7    32    1
    17     8     9   ar
    18     8    33    1
    19     9    10    1
    20    10    11    1
    21    11    12    1
    22    11    34    1
    23    11    35    1
    24    12    13    1
    25    12    36    1
    26    12    37    1
    27    13    14    1
    28    13    38    1
    29    13    39    1
    30    14    15    2
    31    14    16   am
    32    16    17    1
    33    16    18    1
    34    17    40    1
    35    17    41    1
    36    17    42    1
    37    18    23   ar
    38    18    19   ar
    39    19    20   ar
    40    20    21   ar
    41    20    43    1
    42    21    22   ar
    43    21    44    1
    44    22    23   ar
    45    22    45    1
    46    23    24    1
    47    24    46    1
    48    24    47    1
    49    24    48    1
@<TRIPOS>SUBSTRUCTURE
     1 ZINC000279331220        1 TEMP              0 ****  ****    0 ROOT


##########                                Name:    ZINC000817655807
##########                DOCK_Rotatable_Bonds:                   3
##########                         Heavy_Atoms:                  24
##########                    Molecular_Weight:             352.774
##########                DOCK_Rotatable_Bonds:                   3
##########                       Formal_Charge:         3.35276e-07
##########                     HBond_Acceptors:                   8
##########                        HBond_Donors:                   0
##########                         Heavy_Atoms:                  24
##########                          Grid_Score:          -33.828323
##########                     Grid_vdw_energy:          -33.111938
##########                      Grid_es_energy:           -0.716383
##########           Internal_energy_repulsive:            2.944659

@<TRIPOS>MOLECULE
ZINC000817655807
 41 44 1 0 0
SMALL
USER_CHARGES


@<TRIPOS>ATOM
      1 C1         -9.3447    0.2973   53.9603 C.3     1  ZINC000817655807    0.1100
      2 N2        -10.0439   -0.9022   53.4928 N.am    1  ZINC000817655807   -0.6400
      3 C3        -11.1796   -1.5521   54.1713 C.3     1  ZINC000817655807    0.1000
      4 C4        -11.5044   -2.7369   53.2571 C.3     1  ZINC000817655807    0.0500
      5 C5        -11.6295   -4.0950   53.9478 C.3     1  ZINC000817655807    0.1200
      6 N6        -13.0788   -3.8111   54.0028 N.am    1  ZINC000817655807   -0.6500
      7 C7        -14.0926   -4.2298   54.7860 C.2     1  ZINC000817655807    0.5500
      8 O8        -15.2169   -3.8174   54.5946 O.2     1  ZINC000817655807   -0.5100
      9 C9        -13.8290   -5.2104   55.8996 C.3     1  ZINC000817655807   -0.0900
     10 C10       -13.2109   -4.4883   57.0691 C.ar    1  ZINC000817655807   -0.0600
     11 C11       -13.9386   -3.5324   57.7524 C.ar    1  ZINC000817655807   -0.0900
     12 C12       -13.3737   -2.8661   58.8250 C.ar    1  ZINC000817655807   -0.0300
     13 Cl13      -14.2905   -1.6657   59.6807 Cl      1  ZINC000817655807   -0.0500
     14 C14       -12.0750   -3.1568   59.2176 C.ar    1  ZINC000817655807    0.0600
     15 O15       -11.5293   -2.4875   60.2699 O.3     1  ZINC000817655807   -0.2900
     16 C16       -10.3633   -3.0664   60.8660 C.3     1  ZINC000817655807    0.0200
     17 C17        -9.4023   -3.4769   59.7420 C.3     1  ZINC000817655807    0.0200
     18 O18       -10.0718   -4.4250   58.9037 O.3     1  ZINC000817655807   -0.3000
     19 C19       -11.3454   -4.1208   58.5323 C.ar    1  ZINC000817655807    0.0600
     20 C20       -11.9192   -4.7874   57.4599 C.ar    1  ZINC000817655807   -0.0900
     21 C21       -12.9725   -2.8844   52.8565 C.3     1  ZINC000817655807    0.1100
     22 O22       -10.5488   -2.6518   52.1748 O.3     1  ZINC000817655807   -0.3000
     23 C23        -9.7592   -1.5857   52.3738 C.2     1  ZINC000817655807    0.6400
     24 O24        -8.8637   -1.2722   51.6146 O.2     1  ZINC000817655807   -0.5100
     25 H25        -8.5519    0.5530   53.2573 H       1  ZINC000817655807    0.0900
     26 H26       -10.0501    1.1255   54.0292 H       1  ZINC000817655807    0.0700
     27 H27        -8.9118    0.1060   54.9422 H       1  ZINC000817655807    0.0700
     28 H28       -10.8875   -1.8999   55.1623 H       1  ZINC000817655807    0.1000
     29 H29       -12.0290   -0.8722   54.2362 H       1  ZINC000817655807    0.1000
     30 H30       -11.3702   -4.9393   53.3089 H       1  ZINC000817655807    0.1100
     31 H31       -11.1516   -4.1369   54.9264 H       1  ZINC000817655807    0.1000
     32 H32       -14.7680   -5.6683   56.2104 H       1  ZINC000817655807    0.1100
     33 H33       -13.1463   -5.9841   55.5483 H       1  ZINC000817655807    0.1100
     34 H34       -14.9497   -3.3052   57.4484 H       1  ZINC000817655807    0.1400
     35 H35        -9.8801   -2.3352   61.5139 H       1  ZINC000817655807    0.1300
     36 H36       -10.6450   -3.9443   61.4475 H       1  ZINC000817655807    0.0800
     37 H37        -9.1252   -2.6001   59.1568 H       1  ZINC000817655807    0.0800
     38 H38        -8.5088   -3.9313   60.1700 H       1  ZINC000817655807    0.1300
     39 H39       -11.3547   -5.5383   56.9272 H       1  ZINC000817655807    0.1400
     40 H40       -13.5548   -1.9705   52.9738 H       1  ZINC000817655807    0.1000
     41 H41       -13.1187   -3.3632   51.8883 H       1  ZINC000817655807    0.1100
@<TRIPOS>BOND
     1     1     2    1
     2     1    25    1
     3     1    26    1
     4     1    27    1
     5     2    23   am
     6     2     3    1
     7     3     4    1
     8     3    28    1
     9     3    29    1
    10     4    21    1
    11     4     5    1
    12     4    22    1
    13     5     6    1
    14     5    30    1
    15     5    31    1
    16     6     7   am
    17     6    21    1
    18     7     8    2
    19     7     9    1
    20     9    10    1
    21     9    32    1
    22     9    33    1
    23    10    20   ar
    24    10    11   ar
    25    11    12   ar
    26    11    34    1
    27    12    13    1
    28    12    14   ar
    29    14    19   ar
    30    14    15    1
    31    15    16    1
    32    16    17    1
    33    16    35    1
    34    16    36    1
    35    17    18    1
    36    17    37    1
    37    17    38    1
    38    18    19    1
    39    19    20   ar
    40    20    39    1
    41    21    40    1
    42    21    41    1
    43    22    23    1
    44    23    24    2
@<TRIPOS>SUBSTRUCTURE
     1 ZINC000817655807        1 TEMP              0 ****  ****    0 ROOT


##########                                Name:    ZINC000426037318
##########                DOCK_Rotatable_Bonds:                   7
##########                         Heavy_Atoms:                  28
##########                    Molecular_Weight:             421.904
##########                DOCK_Rotatable_Bonds:                   7
##########                       Formal_Charge:         -0.00999981
##########                     HBond_Acceptors:                   9
##########                        HBond_Donors:                   1
##########                         Heavy_Atoms:                  28
##########                          Grid_Score:          -33.821030
##########                     Grid_vdw_energy:          -33.433205
##########                      Grid_es_energy:           -0.387826
##########           Internal_energy_repulsive:           20.247025

@<TRIPOS>MOLECULE
ZINC000426037318
 48 50 1 0 0
SMALL
USER_CHARGES


@<TRIPOS>ATOM
      1 C1        -13.3671   -2.1329   51.6446 C.3     1  ZINC000426037318    0.0300
      2 O2        -12.5200   -3.1825   52.1165 O.3     1  ZINC000426037318   -0.3800
      3 C3        -11.7719   -2.8442   53.2861 C.3     1  ZINC000426037318    0.1300
      4 C4        -10.7542   -1.7871   52.9433 C.ar    1  ZINC000426037318    0.3900
      5 N5        -10.8737   -0.5869   53.4819 N.ar    1  ZINC000426037318   -0.5700
      6 C6        -10.0078    0.3760   53.2148 C.ar    1  ZINC000426037318    0.4400
      7 O7        -10.1459    1.5996   53.7764 O.3     1  ZINC000426037318   -0.2800
      8 C8        -11.4602    1.9791   54.1897 C.3     1  ZINC000426037318    0.0300
      9 C9         -8.9295    0.1064   52.3293 C.ar    1  ZINC000426037318   -0.2000
     10 C10        -7.8949    0.9411   51.8914 C.2     1  ZINC000426037318    0.0500
     11 C11        -7.7723    2.3739   52.3421 C.3     1  ZINC000426037318   -0.1200
     12 C12        -7.0215    0.3811   51.0455 C.2     1  ZINC000426037318   -0.2700
     13 C13        -5.8633    1.0707   50.4636 C.2     1  ZINC000426037318    0.6000
     14 O14        -5.8844    1.4172   49.2973 O.2     1  ZINC000426037318   -0.5000
     15 N15        -4.7768    1.3198   51.2211 N.am    1  ZINC000426037318   -0.6600
     16 C16        -3.6717    1.9778   50.6658 C.ar    1  ZINC000426037318    0.1200
     17 C17        -3.0316    1.4444   49.5558 C.ar    1  ZINC000426037318   -0.0700
     18 C18        -1.9422    2.0940   49.0084 C.ar    1  ZINC000426037318   -0.0900
     19 C19        -1.2477    1.5148   47.8029 C.3     1  ZINC000426037318   -0.1100
     20 C20        -1.4875    3.2790   49.5676 C.ar    1  ZINC000426037318    0.1300
     21 O21        -0.4154    3.9176   49.0276 O.3     1  ZINC000426037318   -0.3100
     22 C22        -0.0359    5.1618   49.6191 C.3     1  ZINC000426037318    0.0200
     23 C23        -2.1262    3.8136   50.6772 C.ar    1  ZINC000426037318   -0.1800
     24 C24        -3.2191    3.1681   51.2228 C.ar    1  ZINC000426037318   -0.0300
     25 Cl25       -4.0190    3.8370   52.6109 Cl      1  ZINC000426037318   -0.0600
     26 S26        -7.4507   -1.2911   50.7283 S.3     1  ZINC000426037318    0.2200
     27 C27        -8.8510   -1.1844   51.7865 C.ar    1  ZINC000426037318    0.1300
     28 N28        -9.7746   -2.0911   52.1232 N.ar    1  ZINC000426037318   -0.5000
     29 H29       -13.9001   -2.4685   50.7549 H       1  ZINC000426037318    0.0900
     30 H30       -14.0856   -1.8692   52.4207 H       1  ZINC000426037318    0.0500
     31 H31       -12.7619   -1.2604   51.3982 H       1  ZINC000426037318    0.0500
     32 H32       -12.4476   -2.4634   54.0520 H       1  ZINC000426037318    0.0900
     33 H33       -11.2618   -3.7318   53.6603 H       1  ZINC000426037318    0.0800
     34 H34       -11.8250    1.2720   54.9347 H       1  ZINC000426037318    0.0700
     35 H35       -11.4305    2.9792   54.6220 H       1  ZINC000426037318    0.1100
     36 H36       -12.1274    1.9754   53.3278 H       1  ZINC000426037318    0.0700
     37 H37        -7.1644    2.4198   53.2457 H       1  ZINC000426037318    0.0900
     38 H38        -7.2997    2.9629   51.5561 H       1  ZINC000426037318    0.1000
     39 H39        -8.7640    2.7754   52.5505 H       1  ZINC000426037318    0.0800
     40 H40        -4.7600    1.0437   52.1509 H       1  ZINC000426037318    0.4100
     41 H41        -3.3849    0.5214   49.1202 H       1  ZINC000426037318    0.1600
     42 H42        -1.7071    1.9070   46.8956 H       1  ZINC000426037318    0.0700
     43 H43        -0.1931    1.7897   47.8243 H       1  ZINC000426037318    0.0700
     44 H44        -1.3405    0.4289   47.8169 H       1  ZINC000426037318    0.0700
     45 H45        -0.8640    5.8667   49.5455 H       1  ZINC000426037318    0.0600
     46 H46         0.2150    5.0041   50.6679 H       1  ZINC000426037318    0.0600
     47 H47         0.8311    5.5639   49.0947 H       1  ZINC000426037318    0.1000
     48 H48        -1.7715    4.7364   51.1119 H       1  ZINC000426037318    0.1500
@<TRIPOS>BOND
     1     1     2    1
     2     1    29    1
     3     1    30    1
     4     1    31    1
     5     2     3    1
     6     3     4    1
     7     3    32    1
     8     3    33    1
     9     4    28   ar
    10     4     5   ar
    11     5     6   ar
    12     6     7    1
    13     6     9   ar
    14     7     8    1
    15     8    34    1
    16     8    35    1
    17     8    36    1
    18     9    27   ar
    19     9    10    1
    20    10    11    1
    21    10    12    2
    22    11    37    1
    23    11    38    1
    24    11    39    1
    25    12    13    1
    26    12    26    1
    27    13    14    2
    28    13    15   am
    29    15    16    1
    30    15    40    1
    31    16    24   ar
    32    16    17   ar
    33    17    18   ar
    34    17    41    1
    35    18    19    1
    36    18    20   ar
    37    19    42    1
    38    19    43    1
    39    19    44    1
    40    20    21    1
    41    20    23   ar
    42    21    22    1
    43    22    45    1
    44    22    46    1
    45    22    47    1
    46    23    24   ar
    47    23    48    1
    48    24    25    1
    49    26    27    1
    50    27    28   ar
@<TRIPOS>SUBSTRUCTURE
     1 ZINC000426037318        1 TEMP              0 ****  ****    0 ROOT


##########                                Name:    ZINC001408567397
##########                DOCK_Rotatable_Bonds:                   9
##########                         Heavy_Atoms:                  24
##########                    Molecular_Weight:             336.434
##########                DOCK_Rotatable_Bonds:                   9
##########                       Formal_Charge:          -0.0199996
##########                     HBond_Acceptors:                   7
##########                        HBond_Donors:                   2
##########                         Heavy_Atoms:                  24
##########                          Grid_Score:          -33.801861
##########                     Grid_vdw_energy:          -31.344591
##########                      Grid_es_energy:           -2.457270
##########           Internal_energy_repulsive:           54.869370

@<TRIPOS>MOLECULE
ZINC001408567397
 52 53 1 0 0
SMALL
USER_CHARGES


@<TRIPOS>ATOM
      1 C1        -14.5447   -4.3449   57.9125 C.3     1  ZINC001408567397   -0.0800
      2 C2        -14.1134   -4.7485   56.5261 C.2     1  ZINC001408567397    0.0900
      3 N3        -14.6501   -5.6962   55.8011 N.2     1  ZINC001408567397   -0.2900
      4 N4        -13.9646   -5.7551   54.5809 N.pl3   1  ZINC001408567397   -0.4700
      5 C5        -13.0002   -4.8115   54.6002 C.2     1  ZINC001408567397    0.1100
      6 C6        -12.0206   -4.5193   53.4930 C.3     1  ZINC001408567397   -0.1000
      7 C7        -13.0739   -4.1707   55.7898 C.2     1  ZINC001408567397   -0.2200
      8 C8        -12.1872   -3.0403   56.2445 C.3     1  ZINC001408567397   -0.0600
      9 C9        -11.3466   -3.4982   57.4085 C.2     1  ZINC001408567397    0.5100
     10 O10       -10.9660   -4.6483   57.4663 O.2     1  ZINC001408567397   -0.5300
     11 N11       -11.0178   -2.6297   58.3853 N.am    1  ZINC001408567397   -0.7300
     12 C12       -10.1992   -3.0744   59.5159 C.3     1  ZINC001408567397    0.1100
     13 C13        -9.4121   -1.8870   60.0738 C.3     1  ZINC001408567397    0.1000
     14 N14       -10.2004   -0.6620   59.9180 N.am    1  ZINC001408567397   -0.6200
     15 C15       -11.2149   -0.3121   60.9154 C.3     1  ZINC001408567397    0.0700
     16 C16        -9.9923    0.1430   58.8573 C.2     1  ZINC001408567397    0.5100
     17 O17        -9.1536   -0.1475   58.0310 O.2     1  ZINC001408567397   -0.5300
     18 C18       -10.8021    1.4039   58.6981 C.3     1  ZINC001408567397   -0.1300
     19 C19       -10.4116    2.0994   57.3924 C.3     1  ZINC001408567397   -0.1100
     20 H20       -11.0138    2.9990   57.2647 H       1  ZINC001408567397    0.0900
     21 C21        -8.9283    2.4786   57.4381 C.3     1  ZINC001408567397   -0.1200
     22 C22        -8.5307    3.1030   56.0971 C.3     1  ZINC001408567397   -0.1600
     23 C23        -8.8433    2.1151   54.9702 C.3     1  ZINC001408567397    0.0600
     24 O24       -10.2322    1.7806   55.0036 O.3     1  ZINC001408567397   -0.3800
     25 C25       -10.6531    1.1507   56.2154 C.3     1  ZINC001408567397    0.0600
     26 H26       -15.3097   -3.5714   57.8443 H       1  ZINC001408567397    0.0800
     27 H27       -14.9504   -5.2120   58.4338 H       1  ZINC001408567397    0.0700
     28 H28       -13.6862   -3.9592   58.4623 H       1  ZINC001408567397    0.0800
     29 H29       -14.1504   -6.3665   53.8509 H       1  ZINC001408567397    0.4400
     30 H30       -12.4418   -3.7693   52.8236 H       1  ZINC001408567397    0.0800
     31 H31       -11.0907   -4.1438   53.9202 H       1  ZINC001408567397    0.0900
     32 H32       -11.8206   -5.4337   52.9343 H       1  ZINC001408567397    0.0700
     33 H33       -11.5370   -2.7361   55.4243 H       1  ZINC001408567397    0.1000
     34 H34       -12.8039   -2.1957   56.5518 H       1  ZINC001408567397    0.1000
     35 H35       -11.3233   -1.7102   58.3397 H       1  ZINC001408567397    0.4000
     36 H36       -10.8450   -3.4803   60.2946 H       1  ZINC001408567397    0.0700
     37 H37        -9.5053   -3.8454   59.1810 H       1  ZINC001408567397    0.0700
     38 H38        -9.2041   -2.0533   61.1307 H       1  ZINC001408567397    0.0800
     39 H39        -8.4728   -1.7861   59.5301 H       1  ZINC001408567397    0.0900
     40 H40       -10.7611    0.2967   61.6972 H       1  ZINC001408567397    0.0600
     41 H41       -12.0165    0.2502   60.4364 H       1  ZINC001408567397    0.0800
     42 H42       -11.6222   -1.2229   61.3544 H       1  ZINC001408567397    0.0800
     43 H43       -11.8627    1.1541   58.6735 H       1  ZINC001408567397    0.1000
     44 H44       -10.6051    2.0706   59.5377 H       1  ZINC001408567397    0.1000
     45 H45        -8.7604    3.1981   58.2394 H       1  ZINC001408567397    0.0700
     46 H46        -8.3290    1.5858   57.6165 H       1  ZINC001408567397    0.0600
     47 H47        -9.0948    4.0228   55.9421 H       1  ZINC001408567397    0.0700
     48 H48        -7.4635    3.3255   56.1009 H       1  ZINC001408567397    0.0700
     49 H49        -8.6021    2.5708   54.0100 H       1  ZINC001408567397    0.0900
     50 H50        -8.2485    1.2115   55.1037 H       1  ZINC001408567397    0.0500
     51 H51       -10.0824    0.2343   56.3659 H       1  ZINC001408567397    0.0400
     52 H52       -11.7146    0.9117   56.1511 H       1  ZINC001408567397    0.1100
@<TRIPOS>BOND
     1     1     2    1
     2     1    26    1
     3     1    27    1
     4     1    28    1
     5     2     7    1
     6     2     3    2
     7     3     4    1
     8     4     5    1
     9     4    29    1
    10     5     6    1
    11     5     7    2
    12     6    30    1
    13     6    31    1
    14     6    32    1
    15     7     8    1
    16     8     9    1
    17     8    33    1
    18     8    34    1
    19     9    10    2
    20     9    11   am
    21    11    12    1
    22    11    35    1
    23    12    13    1
    24    12    36    1
    25    12    37    1
    26    13    14    1
    27    13    38    1
    28    13    39    1
    29    14    15    1
    30    14    16   am
    31    15    40    1
    32    15    41    1
    33    15    42    1
    34    16    17    2
    35    16    18    1
    36    18    19    1
    37    18    43    1
    38    18    44    1
    39    19    20    1
    40    19    25    1
    41    19    21    1
    42    21    22    1
    43    21    45    1
    44    21    46    1
    45    22    23    1
    46    22    47    1
    47    22    48    1
    48    23    24    1
    49    23    49    1
    50    23    50    1
    51    24    25    1
    52    25    51    1
    53    25    52    1
@<TRIPOS>SUBSTRUCTURE
     1 ZINC001408567397        1 TEMP              0 ****  ****    0 ROOT


##########                                Name:    ZINC001004075025
##########                DOCK_Rotatable_Bonds:                   8
##########                         Heavy_Atoms:                  25
##########                    Molecular_Weight:              349.43
##########                DOCK_Rotatable_Bonds:                   8
##########                       Formal_Charge:         -0.00999999
##########                     HBond_Acceptors:                   7
##########                        HBond_Donors:                   1
##########                         Heavy_Atoms:                  25
##########                          Grid_Score:          -33.786686
##########                     Grid_vdw_energy:          -30.915531
##########                      Grid_es_energy:           -2.871155
##########           Internal_energy_repulsive:           11.775512

@<TRIPOS>MOLECULE
ZINC001004075025
 52 54 1 0 0
SMALL
USER_CHARGES


@<TRIPOS>ATOM
      1 C1          0.2016    2.9595   56.4039 C.3     1  ZINC001004075025   -0.1500
      2 C2         -0.8736    4.0403   56.5332 C.3     1  ZINC001004075025   -0.1200
      3 C3         -2.2411    3.4420   56.1975 C.3     1  ZINC001004075025    0.0800
      4 H4         -2.2664    3.1176   55.1572 H       1  ZINC001004075025    0.0700
      5 C5         -2.5532    2.2519   57.1395 C.3     1  ZINC001004075025   -0.1500
      6 C6         -4.1056    2.2396   57.0944 C.3     1  ZINC001004075025   -0.1400
      7 C7         -4.4415    3.7409   56.9653 C.3     1  ZINC001004075025    0.0700
      8 H8         -4.6938    4.1490   57.9440 H       1  ZINC001004075025    0.1100
      9 C9         -5.6006    3.9260   56.0201 C.2     1  ZINC001004075025    0.5300
     10 O10        -5.4305    4.4749   54.9521 O.2     1  ZINC001004075025   -0.5200
     11 N11        -6.8263    3.4816   56.3617 N.am    1  ZINC001004075025   -0.6500
     12 C12        -7.4203    2.8005   57.5220 C.3     1  ZINC001004075025    0.1100
     13 C13        -8.4723    2.2137   56.5704 C.3     1  ZINC001004075025   -0.1400
     14 C14        -9.8898    2.1819   57.1453 C.3     1  ZINC001004075025    0.1300
     15 N15        -9.8722    1.5186   58.4515 N.am    1  ZINC001004075025   -0.7200
     16 C16       -10.1548    0.2040   58.5436 C.2     1  ZINC001004075025    0.6000
     17 O17       -10.4229   -0.4318   57.5424 O.2     1  ZINC001004075025   -0.5300
     18 C18       -10.1387   -0.4629   59.8581 C.2     1  ZINC001004075025   -0.2700
     19 C19       -10.0559   -1.8054   60.1360 C.2     1  ZINC001004075025    0.0700
     20 C20        -9.9609   -2.9305   59.1379 C.3     1  ZINC001004075025   -0.0300
     21 C21        -9.3201   -4.1500   59.8035 C.3     1  ZINC001004075025   -0.1500
     22 C22       -11.3629   -3.2958   58.6461 C.3     1  ZINC001004075025   -0.1500
     23 O23       -10.0763   -1.9155   61.4663 O.3     1  ZINC001004075025    0.1000
     24 N24       -10.1582   -0.8515   62.0293 N.2     1  ZINC001004075025   -0.3500
     25 C25       -10.2010    0.1455   61.1959 C.2     1  ZINC001004075025    0.0200
     26 C26        -8.1595    3.4701   55.7412 C.3     1  ZINC001004075025    0.1100
     27 O27        -3.2802    4.4022   56.4458 O.3     1  ZINC001004075025   -0.3400
     28 H28         1.1759    3.3857   56.6430 H       1  ZINC001004075025    0.0600
     29 H29        -0.0177    2.1445   57.0936 H       1  ZINC001004075025    0.0500
     30 H30         0.2126    2.5782   55.3828 H       1  ZINC001004075025    0.0600
     31 H31        -0.8845    4.4216   57.5544 H       1  ZINC001004075025    0.0800
     32 H32        -0.6543    4.8553   55.8434 H       1  ZINC001004075025    0.0700
     33 H33        -2.1415    1.3220   56.7473 H       1  ZINC001004075025    0.0900
     34 H34        -2.1910    2.4447   58.1492 H       1  ZINC001004075025    0.0900
     35 H35        -4.4642    1.6858   56.2268 H       1  ZINC001004075025    0.0800
     36 H36        -4.5172    1.8280   58.0160 H       1  ZINC001004075025    0.0900
     37 H37        -6.7677    2.0481   57.9647 H       1  ZINC001004075025    0.0900
     38 H38        -7.8371    3.4851   58.2607 H       1  ZINC001004075025    0.0900
     39 H39        -8.1765    1.2755   56.1011 H       1  ZINC001004075025    0.1100
     40 H40       -10.2582    3.2013   57.2604 H       1  ZINC001004075025    0.0800
     41 H41       -10.5443    1.6333   56.4681 H       1  ZINC001004075025    0.0800
     42 H42        -9.6571    2.0257   59.2500 H       1  ZINC001004075025    0.4000
     43 H43        -9.3499   -2.6152   58.2921 H       1  ZINC001004075025    0.1300
     44 H44        -9.9310   -4.4653   60.6493 H       1  ZINC001004075025    0.0600
     45 H45        -9.2513   -4.9638   59.0815 H       1  ZINC001004075025    0.0700
     46 H46        -8.3212   -3.8898   60.1538 H       1  ZINC001004075025    0.0600
     47 H47       -11.9739   -3.6111   59.4920 H       1  ZINC001004075025    0.0600
     48 H48       -11.8195   -2.4269   58.1720 H       1  ZINC001004075025    0.0600
     49 H49       -11.2942   -4.1095   57.9242 H       1  ZINC001004075025    0.0700
     50 H50       -10.2738    1.1963   61.4349 H       1  ZINC001004075025    0.2000
     51 H51        -8.7736    4.3303   56.0079 H       1  ZINC001004075025    0.0900
     52 H52        -8.1346    3.2862   54.6671 H       1  ZINC001004075025    0.0800
@<TRIPOS>BOND
     1     1     2    1
     2     1    28    1
     3     1    29    1
     4     1    30    1
     5     2     3    1
     6     2    31    1
     7     2    32    1
     8     3     4    1
     9     3    27    1
    10     3     5    1
    11     5     6    1
    12     5    33    1
    13     5    34    1
    14     6     7    1
    15     6    35    1
    16     6    36    1
    17     7     8    1
    18     7     9    1
    19     7    27    1
    20     9    10    2
    21     9    11   am
    22    11    26    1
    23    11    12    1
    24    12    13    1
    25    12    37    1
    26    12    38    1
    27    13    14    1
    28    13    26    1
    29    13    39    1
    30    14    15    1
    31    14    40    1
    32    14    41    1
    33    15    16   am
    34    15    42    1
    35    16    17    2
    36    16    18    1
    37    18    25    1
    38    18    19    2
    39    19    20    1
    40    19    23    1
    41    20    21    1
    42    20    22    1
    43    20    43    1
    44    21    44    1
    45    21    45    1
    46    21    46    1
    47    22    47    1
    48    22    48    1
    49    22    49    1
    50    23    24    1
    51    24    25    2
    52    25    50    1
    53    26    51    1
    54    26    52    1
@<TRIPOS>SUBSTRUCTURE
     1 ZINC001004075025        1 TEMP              0 ****  ****    0 ROOT


##########                                Name:    ZINC001018437438
##########                DOCK_Rotatable_Bonds:                   8
##########                         Heavy_Atoms:                  24
##########                    Molecular_Weight:              333.39
##########                DOCK_Rotatable_Bonds:                   8
##########                       Formal_Charge:        -4.17233e-07
##########                     HBond_Acceptors:                   8
##########                        HBond_Donors:                   4
##########                         Heavy_Atoms:                  24
##########                          Grid_Score:          -33.776966
##########                     Grid_vdw_energy:          -34.510555
##########                      Grid_es_energy:            0.733591
##########           Internal_energy_repulsive:           88.204529

@<TRIPOS>MOLECULE
ZINC001018437438
 47 49 1 0 0
SMALL
USER_CHARGES


@<TRIPOS>ATOM
      1 C1        -14.4232   -5.0657   56.8263 C.3     1  ZINC001018437438   -0.1400
      2 C2        -13.3025   -4.8424   55.8091 C.3     1  ZINC001018437438    0.1400
      3 H3        -12.7676   -5.7776   55.6434 H       1  ZINC001018437438    0.0700
      4 C4        -13.8996   -4.3511   54.4866 C.3     1  ZINC001018437438   -0.1300
      5 C5        -12.7670   -3.9973   53.5201 C.3     1  ZINC001018437438   -0.1300
      6 C6        -11.9194   -2.8706   54.1155 C.3     1  ZINC001018437438    0.1300
      7 H7        -12.5495   -2.0010   54.3019 H       1  ZINC001018437438    0.1000
      8 N8        -10.8549   -2.5107   53.1757 N.am    1  ZINC001018437438   -0.7200
      9 C9        -10.1930   -1.3457   53.3211 C.2     1  ZINC001018437438    0.6000
     10 O10       -10.4785   -0.5939   54.2336 O.2     1  ZINC001018437438   -0.5100
     11 C11        -9.1248   -0.9833   52.3760 C.2     1  ZINC001018437438   -0.0400
     12 C12        -8.6876    0.2928   52.0660 C.2     1  ZINC001018437438   -0.1400
     13 C13        -7.6677    0.1168   51.1280 C.2     1  ZINC001018437438    0.0600
     14 C14        -6.8648    1.2117   50.4745 C.3     1  ZINC001018437438   -0.0800
     15 C15        -5.8484    1.9566   51.3423 C.3     1  ZINC001018437438   -0.1700
     16 C16        -5.3670    0.9684   50.2781 C.3     1  ZINC001018437438   -0.1600
     17 N17        -7.5329   -1.1678   50.9180 N.2     1  ZINC001018437438   -0.2600
     18 N18        -8.3622   -1.8392   51.6333 N.pl3   1  ZINC001018437438   -0.3800
     19 C19       -11.2998   -3.3451   55.4337 C.3     1  ZINC001018437438    0.1000
     20 N20       -12.3713   -3.8259   56.3172 N.am    1  ZINC001018437438   -0.6100
     21 C21       -12.5002   -3.3398   57.5677 C.2     1  ZINC001018437438    0.5200
     22 O22       -13.3915   -3.7413   58.2855 O.2     1  ZINC001018437438   -0.4800
     23 C23       -11.5367   -2.2974   58.0738 C.3     1  ZINC001018437438   -0.1700
     24 C24       -11.8864   -1.9382   59.4951 C.2     1  ZINC001018437438    0.5200
     25 N25       -11.7318   -2.8479   60.4775 N.am    1  ZINC001018437438   -0.8600
     26 O26       -12.3068   -0.8307   59.7548 O.2     1  ZINC001018437438   -0.5000
     27 H27       -14.8917   -4.1112   57.0662 H       1  ZINC001018437438    0.0700
     28 H28       -15.1681   -5.7401   56.4041 H       1  ZINC001018437438    0.0500
     29 H29       -14.0083   -5.5049   57.7335 H       1  ZINC001018437438    0.0800
     30 H30       -14.5167   -5.1375   54.0518 H       1  ZINC001018437438    0.0900
     31 H31       -14.5111   -3.4676   54.6695 H       1  ZINC001018437438    0.0700
     32 H32       -12.1415   -4.8750   53.3570 H       1  ZINC001018437438    0.0700
     33 H33       -13.1891   -3.6709   52.5698 H       1  ZINC001018437438    0.0800
     34 H34       -10.6263   -3.1108   52.4487 H       1  ZINC001018437438    0.4000
     35 H35        -9.0566    1.2262   52.4646 H       1  ZINC001018437438    0.1700
     36 H36        -7.3866    1.7834   49.7070 H       1  ZINC001018437438    0.1200
     37 H37        -5.7015    3.0187   51.1460 H       1  ZINC001018437438    0.1000
     38 H38        -5.7606    1.6547   52.3860 H       1  ZINC001018437438    0.1000
     39 H39        -4.9625    0.0162   50.6216 H       1  ZINC001018437438    0.1000
     40 H40        -4.9035    1.3803   49.3817 H       1  ZINC001018437438    0.1000
     41 H41        -8.4396   -2.8060   51.6398 H       1  ZINC001018437438    0.4400
     42 H42       -10.5995   -4.1569   55.2370 H       1  ZINC001018437438    0.0700
     43 H43       -10.7769   -2.5163   55.9109 H       1  ZINC001018437438    0.0900
     44 H44       -10.5217   -2.6930   58.0383 H       1  ZINC001018437438    0.1200
     45 H45       -11.6019   -1.4077   57.4477 H       1  ZINC001018437438    0.1200
     46 H46       -11.9579   -2.6173   61.3921 H       1  ZINC001018437438    0.4000
     47 H47       -11.3944   -3.7333   60.2698 H       1  ZINC001018437438    0.4000
@<TRIPOS>BOND
     1     1     2    1
     2     1    27    1
     3     1    28    1
     4     1    29    1
     5     2     3    1
     6     2    20    1
     7     2     4    1
     8     4     5    1
     9     4    30    1
    10     4    31    1
    11     5     6    1
    12     5    32    1
    13     5    33    1
    14     6     7    1
    15     6     8    1
    16     6    19    1
    17     8     9   am
    18     8    34    1
    19     9    10    2
    20     9    11    1
    21    11    18    1
    22    11    12    2
    23    12    13    1
    24    12    35    1
    25    13    14    1
    26    13    17    2
    27    14    16    1
    28    14    15    1
    29    14    36    1
    30    15    16    1
    31    15    37    1
    32    15    38    1
    33    16    39    1
    34    16    40    1
    35    17    18    1
    36    18    41    1
    37    19    20    1
    38    19    42    1
    39    19    43    1
    40    20    21   am
    41    21    22    2
    42    21    23    1
    43    23    24    1
    44    23    44    1
    45    23    45    1
    46    24    25   am
    47    24    26    2
    48    25    46    1
    49    25    47    1
@<TRIPOS>SUBSTRUCTURE
     1 ZINC001018437438        1 TEMP              0 ****  ****    0 ROOT


##########                                Name:    ZINC000942890482
##########                DOCK_Rotatable_Bonds:                   8
##########                         Heavy_Atoms:                  25
##########                    Molecular_Weight:             346.445
##########                DOCK_Rotatable_Bonds:                   8
##########                       Formal_Charge:          -0.0100004
##########                     HBond_Acceptors:                   5
##########                        HBond_Donors:                   0
##########                         Heavy_Atoms:                  25
##########                          Grid_Score:          -33.762772
##########                     Grid_vdw_energy:          -33.417889
##########                      Grid_es_energy:           -0.344882
##########           Internal_energy_repulsive:           28.283405

@<TRIPOS>MOLECULE
ZINC000942890482
 52 54 1 0 0
SMALL
USER_CHARGES


@<TRIPOS>ATOM
      1 C1        -14.7064   -3.5201   54.0111 C.3     1  ZINC000942890482   -0.1700
      2 C2        -13.6524   -4.5931   54.2914 C.3     1  ZINC000942890482    0.1000
      3 N3        -12.8172   -4.1742   55.4198 N.am    1  ZINC000942890482   -0.6000
      4 C4        -13.0838   -4.6283   56.6605 C.2     1  ZINC000942890482    0.5700
      5 O5        -14.0173   -5.3853   56.8431 O.2     1  ZINC000942890482   -0.5100
      6 C6        -12.2417   -4.2060   57.7983 C.ar    1  ZINC000942890482   -0.1400
      7 C7        -10.9768   -4.7686   57.9806 C.ar    1  ZINC000942890482   -0.0600
      8 C8        -10.1948   -4.3704   59.0439 C.ar    1  ZINC000942890482   -0.1600
      9 C9        -10.6623   -3.4134   59.9313 C.ar    1  ZINC000942890482    0.1300
     10 F10        -9.8919   -3.0268   60.9717 F       1  ZINC000942890482   -0.1300
     11 C11       -11.9176   -2.8512   59.7547 C.ar    1  ZINC000942890482   -0.1600
     12 C12       -12.7056   -3.2384   58.6924 C.ar    1  ZINC000942890482   -0.0100
     13 C13       -14.0694   -2.6265   58.5017 C.3     1  ZINC000942890482   -0.1200
     14 C14       -11.6923   -3.2619   55.1996 C.3     1  ZINC000942890482    0.1400
     15 H15       -10.7985   -3.6161   55.7131 H       1  ZINC000942890482    0.1100
     16 C16       -12.0522   -1.8186   55.6409 C.3     1  ZINC000942890482   -0.1500
     17 C17       -11.1318   -0.9481   54.7596 C.3     1  ZINC000942890482    0.1100
     18 N18       -10.7602   -1.7539   53.5873 N.am    1  ZINC000942890482   -0.6200
     19 C19        -9.9471   -1.3583   52.5879 C.2     1  ZINC000942890482    0.5300
     20 O20        -9.7099   -2.1094   51.6657 O.2     1  ZINC000942890482   -0.5400
     21 C21        -9.3325    0.0175   52.6164 C.3     1  ZINC000942890482   -0.1300
     22 C22        -8.0259    0.0089   51.8204 C.3     1  ZINC000942890482   -0.0700
     23 C23        -7.3987    1.4040   51.8548 C.3     1  ZINC000942890482   -0.1600
     24 C24        -6.9864    2.0262   50.5192 C.3     1  ZINC000942890482   -0.1800
     25 C25        -8.2113    2.5586   51.2656 C.3     1  ZINC000942890482   -0.1800
     26 C26       -11.4230   -3.0675   53.6865 C.3     1  ZINC000942890482    0.0900
     27 H27       -15.3305   -3.3842   54.8944 H       1  ZINC000942890482    0.0600
     28 H28       -14.2118   -2.5797   53.7677 H       1  ZINC000942890482    0.0600
     29 H29       -15.3278   -3.8317   53.1716 H       1  ZINC000942890482    0.0700
     30 H30       -14.1470   -5.5334   54.5348 H       1  ZINC000942890482    0.0900
     31 H31       -13.0283   -4.7289   53.4081 H       1  ZINC000942890482    0.0900
     32 H32       -10.6118   -5.5144   57.2900 H       1  ZINC000942890482    0.1400
     33 H33        -9.2164   -4.8051   59.1860 H       1  ZINC000942890482    0.1400
     34 H34       -12.2769   -2.1060   60.4490 H       1  ZINC000942890482    0.1400
     35 H35       -13.9756   -1.6978   57.9388 H       1  ZINC000942890482    0.0900
     36 H36       -14.7058   -3.3210   57.9533 H       1  ZINC000942890482    0.0700
     37 H37       -14.5135   -2.4180   59.4751 H       1  ZINC000942890482    0.0700
     38 H38       -13.1005   -1.6025   55.4349 H       1  ZINC000942890482    0.1000
     39 H39       -11.8272   -1.6709   56.6971 H       1  ZINC000942890482    0.0900
     40 H40       -11.6637   -0.0520   54.4400 H       1  ZINC000942890482    0.0700
     41 H41       -10.2374   -0.6715   55.3178 H       1  ZINC000942890482    0.0700
     42 H42       -10.0240    0.7335   52.1722 H       1  ZINC000942890482    0.0900
     43 H43        -9.1275    0.3025   53.6483 H       1  ZINC000942890482    0.0900
     44 H44        -7.3363   -0.7105   52.2620 H       1  ZINC000942890482    0.0700
     45 H45        -8.2316   -0.2717   50.7875 H       1  ZINC000942890482    0.0700
     46 H46        -6.7763    1.6183   52.7236 H       1  ZINC000942890482    0.1000
     47 H47        -6.0927    2.6501   50.5091 H       1  ZINC000942890482    0.0900
     48 H48        -7.1622    1.4417   49.6160 H       1  ZINC000942890482    0.0900
     49 H49        -9.1929    2.3244   50.8535 H       1  ZINC000942890482    0.0900
     50 H50        -8.1234    3.5328   51.7465 H       1  ZINC000942890482    0.0900
     51 H51       -10.7662   -3.8530   53.3130 H       1  ZINC000942890482    0.0800
     52 H52       -12.3618   -3.0616   53.1326 H       1  ZINC000942890482    0.0900
@<TRIPOS>BOND
     1     1     2    1
     2     1    27    1
     3     1    28    1
     4     1    29    1
     5     2     3    1
     6     2    30    1
     7     2    31    1
     8     3     4   am
     9     3    14    1
    10     4     5    2
    11     4     6    1
    12     6    12   ar
    13     6     7   ar
    14     7     8   ar
    15     7    32    1
    16     8     9   ar
    17     8    33    1
    18     9    10    1
    19     9    11   ar
    20    11    12   ar
    21    11    34    1
    22    12    13    1
    23    13    35    1
    24    13    36    1
    25    13    37    1
    26    14    15    1
    27    14    26    1
    28    14    16    1
    29    16    17    1
    30    16    38    1
    31    16    39    1
    32    17    18    1
    33    17    40    1
    34    17    41    1
    35    18    19   am
    36    18    26    1
    37    19    20    2
    38    19    21    1
    39    21    22    1
    40    21    42    1
    41    21    43    1
    42    22    23    1
    43    22    44    1
    44    22    45    1
    45    23    25    1
    46    23    24    1
    47    23    46    1
    48    24    25    1
    49    24    47    1
    50    24    48    1
    51    25    49    1
    52    25    50    1
    53    26    51    1
    54    26    52    1
@<TRIPOS>SUBSTRUCTURE
     1 ZINC000942890482        1 TEMP              0 ****  ****    0 ROOT


##########                                Name:    ZINC000301324012
##########                DOCK_Rotatable_Bonds:                   7
##########                         Heavy_Atoms:                  28
##########                    Molecular_Weight:               415.9
##########                DOCK_Rotatable_Bonds:                   7
##########                       Formal_Charge:          -0.0100002
##########                     HBond_Acceptors:                   8
##########                        HBond_Donors:                   2
##########                         Heavy_Atoms:                  28
##########                          Grid_Score:          -33.754177
##########                     Grid_vdw_energy:          -33.675594
##########                      Grid_es_energy:           -0.078583
##########           Internal_energy_repulsive:            9.954560

@<TRIPOS>MOLECULE
ZINC000301324012
 46 48 1 0 0
SMALL
USER_CHARGES


@<TRIPOS>ATOM
      1 C1         -8.4297    3.7718   50.8771 C.3     1  ZINC000301324012   -0.1600
      2 C2         -7.8454    2.8321   51.9337 C.3     1  ZINC000301324012    0.2000
      3 H3         -7.8429    3.3315   52.9026 H       1  ZINC000301324012    0.1100
      4 N4         -8.6615    1.6180   52.0123 N.am    1  ZINC000301324012   -0.7100
      5 C5         -9.7616    1.5946   52.7904 C.2     1  ZINC000301324012    0.5500
      6 O6        -10.0776    2.5815   53.4259 O.2     1  ZINC000301324012   -0.5300
      7 C7        -10.5841    0.3687   52.8710 C.ar    1  ZINC000301324012   -0.0700
      8 C8        -11.9754    0.4609   52.9323 C.ar    1  ZINC000301324012   -0.1100
      9 C9        -12.7371   -0.6868   53.0069 C.ar    1  ZINC000301324012   -0.0200
     10 C10       -12.1247   -1.9274   53.0214 C.ar    1  ZINC000301324012   -0.6600
     11 S11       -13.1050   -3.3885   53.1174 S.o2    1  ZINC000301324012    2.6900
     12 O12       -14.2497   -3.1574   52.3076 O.2     1  ZINC000301324012   -0.9400
     13 O13       -12.2182   -4.4804   52.9161 O.2     1  ZINC000301324012   -0.9400
     14 N14       -13.6515   -3.5108   54.6757 N.am    1  ZINC000301324012   -1.0500
     15 C15       -12.7396   -3.6058   55.7305 C.ar    1  ZINC000301324012    0.1600
     16 C16       -11.9139   -2.5319   56.0354 C.ar    1  ZINC000301324012   -0.1600
     17 C17       -11.0136   -2.6290   57.0788 C.ar    1  ZINC000301324012   -0.0800
     18 C18       -10.9333   -3.7938   57.8192 C.ar    1  ZINC000301324012   -0.1200
     19 C19       -11.7540   -4.8659   57.5189 C.ar    1  ZINC000301324012   -0.0900
     20 C20       -12.6611   -4.7737   56.4807 C.ar    1  ZINC000301324012   -0.0600
     21 Cl21      -13.6909   -6.1195   56.1041 Cl      1  ZINC000301324012   -0.0600
     22 C22       -10.7459   -2.0259   52.9605 C.ar    1  ZINC000301324012   -0.0200
     23 C23        -9.9729   -0.8861   52.8803 C.ar    1  ZINC000301324012   -0.0800
     24 C24        -6.4339    2.4651   51.5541 C.ar    1  ZINC000301324012    0.1200
     25 C25        -5.3895    3.2872   51.9316 C.ar    1  ZINC000301324012   -0.1600
     26 C26        -4.0944    2.9402   51.5776 C.ar    1  ZINC000301324012   -0.0700
     27 C27        -3.8981    1.7741   50.8542 C.ar    1  ZINC000301324012   -0.1700
     28 C28        -4.9920    1.0015   50.5121 C.ar    1  ZINC000301324012    0.1100
     29 N29        -6.2094    1.3600   50.8702 N.ar    1  ZINC000301324012   -0.4900
     30 H30        -7.8226    4.6752   50.8186 H       1  ZINC000301324012    0.0700
     31 H31        -8.4323    3.2724   49.9082 H       1  ZINC000301324012    0.0600
     32 H32        -9.4506    4.0373   51.1516 H       1  ZINC000301324012    0.0700
     33 H33        -8.4099    0.8308   51.5043 H       1  ZINC000301324012    0.4100
     34 H34       -12.4547    1.4288   52.9217 H       1  ZINC000301324012    0.1400
     35 H35       -13.8138   -0.6169   53.0543 H       1  ZINC000301324012    0.1500
     36 H36       -14.6045   -3.5167   54.8564 H       1  ZINC000301324012    0.4300
     37 H37       -11.9753   -1.6218   55.4572 H       1  ZINC000301324012    0.1700
     38 H38       -10.3712   -1.7938   57.3161 H       1  ZINC000301324012    0.1400
     39 H39       -10.2280   -3.8668   58.6338 H       1  ZINC000301324012    0.1400
     40 H40       -11.6887   -5.7743   58.0992 H       1  ZINC000301324012    0.1400
     41 H41       -10.2741   -2.9973   52.9718 H       1  ZINC000301324012    0.1500
     42 H42        -8.8967   -0.9643   52.8324 H       1  ZINC000301324012    0.1500
     43 H43        -5.5794    4.1890   52.4948 H       1  ZINC000301324012    0.1400
     44 H44        -3.2586    3.5639   51.8586 H       1  ZINC000301324012    0.1400
     45 H45        -2.9031    1.4733   50.5612 H       1  ZINC000301324012    0.1400
     46 H46        -4.8476    0.0918   49.9483 H       1  ZINC000301324012    0.1600
@<TRIPOS>BOND
     1     1     2    1
     2     1    30    1
     3     1    31    1
     4     1    32    1
     5     2     3    1
     6     2     4    1
     7     2    24    1
     8     4     5   am
     9     4    33    1
    10     5     6    2
    11     5     7    1
    12     7    23   ar
    13     7     8   ar
    14     8     9   ar
    15     8    34    1
    16     9    10   ar
    17     9    35    1
    18    10    11    1
    19    10    22   ar
    20    11    12    2
    21    11    13    2
    22    11    14   am
    23    14    15    1
    24    14    36    1
    25    15    20   ar
    26    15    16   ar
    27    16    17   ar
    28    16    37    1
    29    17    18   ar
    30    17    38    1
    31    18    19   ar
    32    18    39    1
    33    19    20   ar
    34    19    40    1
    35    20    21    1
    36    22    23   ar
    37    22    41    1
    38    23    42    1
    39    24    29   ar
    40    24    25   ar
    41    25    26   ar
    42    25    43    1
    43    26    27   ar
    44    26    44    1
    45    27    28   ar
    46    27    45    1
    47    28    29   ar
    48    28    46    1
@<TRIPOS>SUBSTRUCTURE
     1 ZINC000301324012        1 TEMP              0 ****  ****    0 ROOT


##########                                Name:    ZINC001016082614
##########                DOCK_Rotatable_Bonds:                   6
##########                         Heavy_Atoms:                  25
##########                    Molecular_Weight:             348.402
##########                DOCK_Rotatable_Bonds:                   6
##########                       Formal_Charge:         -0.00999998
##########                     HBond_Acceptors:                   8
##########                        HBond_Donors:                   1
##########                         Heavy_Atoms:                  25
##########                          Grid_Score:          -33.747158
##########                     Grid_vdw_energy:          -35.505695
##########                      Grid_es_energy:            1.758539
##########           Internal_energy_repulsive:           45.858139

@<TRIPOS>MOLECULE
ZINC001016082614
 49 51 1 0 0
SMALL
USER_CHARGES


@<TRIPOS>ATOM
      1 C1        -12.0054   -0.8476   57.4242 C.3     1  ZINC001016082614   -0.1700
      2 C2        -11.0112   -1.6959   56.6285 C.3     1  ZINC001016082614    0.1000
      3 N3        -11.4717   -3.0863   56.5964 N.am    1  ZINC001016082614   -0.6100
      4 C4        -11.1637   -3.9218   57.6082 C.2     1  ZINC001016082614    0.6100
      5 O5        -11.5463   -5.0766   57.5816 O.2     1  ZINC001016082614   -0.5100
      6 C6        -10.3670   -3.4388   58.7417 C.2     1  ZINC001016082614   -0.1100
      7 C7         -9.6661   -4.2022   59.6276 C.2     1  ZINC001016082614    0.0600
      8 N8         -9.0843   -3.3723   60.4994 N.2     1  ZINC001016082614   -0.4900
      9 C9         -9.3959   -2.1425   60.1887 C.2     1  ZINC001016082614    0.2000
     10 O10       -10.1809   -2.1490   59.1069 O.3     1  ZINC001016082614   -0.1900
     11 C11       -12.2672   -3.5685   55.4646 C.3     1  ZINC001016082614    0.1600
     12 H12       -12.4852   -4.6249   55.6216 H       1  ZINC001016082614    0.0800
     13 C13       -13.5853   -2.8008   55.4368 C.3     1  ZINC001016082614   -0.1300
     14 C14       -14.6413   -3.6443   54.7661 C.3     1  ZINC001016082614   -0.1300
     15 C15       -14.6852   -3.3366   53.2584 C.3     1  ZINC001016082614    0.1000
     16 N16       -13.3353   -3.1680   52.6854 N.am    1  ZINC001016082614   -0.6000
     17 C17       -13.1271   -2.1687   51.8055 C.2     1  ZINC001016082614    0.5000
     18 O18       -12.0276   -2.0077   51.3197 O.2     1  ZINC001016082614   -0.5200
     19 C19       -14.2606   -1.2512   51.4252 C.3     1  ZINC001016082614    0.1100
     20 H20       -14.7699   -0.8912   52.3191 H       1  ZINC001016082614    0.1100
     21 C21       -15.2570   -1.9867   50.5018 C.3     1  ZINC001016082614   -0.1200
     22 C22       -14.7342   -1.5968   49.0998 C.3     1  ZINC001016082614   -0.1600
     23 C23       -14.0038   -0.2915   49.3259 C.2     1  ZINC001016082614    0.5300
     24 O24       -13.6879    0.4881   48.4521 O.2     1  ZINC001016082614   -0.5300
     25 N25       -13.7560   -0.1200   50.6379 N.am    1  ZINC001016082614   -0.7100
     26 C26       -12.2272   -4.0304   53.0297 C.3     1  ZINC001016082614    0.1300
     27 C27       -11.4650   -3.4342   54.2390 C.3     1  ZINC001016082614   -0.1600
     28 H28       -11.6627    0.1868   57.4481 H       1  ZINC001016082614    0.0700
     29 H29       -12.9852   -0.8950   56.9490 H       1  ZINC001016082614    0.0500
     30 H30       -12.0764   -1.2304   58.4422 H       1  ZINC001016082614    0.0600
     31 H31       -10.9402   -1.3131   55.6104 H       1  ZINC001016082614    0.0900
     32 H32       -10.0314   -1.6486   57.1037 H       1  ZINC001016082614    0.0900
     33 H33        -9.5944   -5.2798   59.6257 H       1  ZINC001016082614    0.2000
     34 H34        -9.0677   -1.2606   60.7187 H       1  ZINC001016082614    0.2600
     35 H35       -13.8953   -2.5733   56.4568 H       1  ZINC001016082614    0.0700
     36 H36       -13.4539   -1.8726   54.8806 H       1  ZINC001016082614    0.0800
     37 H37       -14.4086   -4.6990   54.9131 H       1  ZINC001016082614    0.0700
     38 H38       -15.6133   -3.4255   55.2081 H       1  ZINC001016082614    0.0800
     39 H39       -15.1881   -4.1558   52.7444 H       1  ZINC001016082614    0.0700
     40 H40       -15.2536   -2.4199   53.1007 H       1  ZINC001016082614    0.0800
     41 H41       -15.2046   -3.0650   50.6518 H       1  ZINC001016082614    0.1000
     42 H42       -16.2727   -1.6219   50.6548 H       1  ZINC001016082614    0.1000
     43 H43       -14.0496   -2.3568   48.7231 H       1  ZINC001016082614    0.1100
     44 H44       -15.5651   -1.4543   48.4089 H       1  ZINC001016082614    0.1100
     45 H45       -13.3027    0.6512   51.0131 H       1  ZINC001016082614    0.4200
     46 H46       -12.6041   -5.0200   53.2879 H       1  ZINC001016082614    0.0800
     47 H47       -11.5516   -4.1106   52.1781 H       1  ZINC001016082614    0.0900
     48 H48       -11.2597   -2.3802   54.0521 H       1  ZINC001016082614    0.0900
     49 H49       -10.5221   -3.9654   54.3686 H       1  ZINC001016082614    0.0700
@<TRIPOS>BOND
     1     1     2    1
     2     1    28    1
     3     1    29    1
     4     1    30    1
     5     2     3    1
     6     2    31    1
     7     2    32    1
     8     3     4   am
     9     3    11    1
    10     4     5    2
    11     4     6    1
    12     6    10    1
    13     6     7    2
    14     7     8    1
    15     7    33    1
    16     8     9    2
    17     9    10    1
    18     9    34    1
    19    11    12    1
    20    11    27    1
    21    11    13    1
    22    13    14    1
    23    13    35    1
    24    13    36    1
    25    14    15    1
    26    14    37    1
    27    14    38    1
    28    15    16    1
    29    15    39    1
    30    15    40    1
    31    16    17   am
    32    16    26    1
    33    17    18    2
    34    17    19    1
    35    19    20    1
    36    19    25    1
    37    19    21    1
    38    21    22    1
    39    21    41    1
    40    21    42    1
    41    22    23    1
    42    22    43    1
    43    22    44    1
    44    23    24    2
    45    23    25   am
    46    25    45    1
    47    26    27    1
    48    26    46    1
    49    26    47    1
    50    27    48    1
    51    27    49    1
@<TRIPOS>SUBSTRUCTURE
     1 ZINC001016082614        1 TEMP              0 ****  ****    0 ROOT


##########                                Name:    ZINC001000186632
##########                DOCK_Rotatable_Bonds:                   7
##########                         Heavy_Atoms:                  23
##########                    Molecular_Weight:             342.379
##########                DOCK_Rotatable_Bonds:                   7
##########                       Formal_Charge:          -0.0100001
##########                     HBond_Acceptors:                  11
##########                        HBond_Donors:                   2
##########                         Heavy_Atoms:                  23
##########                          Grid_Score:          -33.733299
##########                     Grid_vdw_energy:          -33.804173
##########                      Grid_es_energy:            0.070875
##########           Internal_energy_repulsive:            6.279361

@<TRIPOS>MOLECULE
ZINC001000186632
 41 43 1 0 0
SMALL
USER_CHARGES


@<TRIPOS>ATOM
      1 O1        -14.5147   -5.7828   57.4175 O.2     1  ZINC001000186632   -0.5200
      2 C2        -14.5361   -4.6967   57.9568 C.2     1  ZINC001000186632    0.5300
      3 C3        -15.6952   -4.3180   58.8424 C.3     1  ZINC001000186632   -0.0500
      4 C4        -15.2747   -3.2107   59.7741 C.2     1  ZINC001000186632    0.2400
      5 N5        -14.7244   -3.3742   60.9485 N.2     1  ZINC001000186632   -0.3000
      6 N6        -14.4963   -2.0910   61.4719 N.pl3   1  ZINC001000186632   -0.4800
      7 C7        -14.9386   -1.2211   60.5474 C.2     1  ZINC001000186632    0.2700
      8 N8        -15.3982   -1.9063   59.5321 N.2     1  ZINC001000186632   -0.5400
      9 N9        -13.5207   -3.8306   57.7688 N.am    1  ZINC001000186632   -0.7100
     10 C10       -12.3940   -4.1988   56.9079 C.3     1  ZINC001000186632    0.1100
     11 C11       -11.2956   -3.1228   56.8305 C.3     1  ZINC001000186632    0.1000
     12 N12       -10.6761   -3.8158   57.9768 N.am    1  ZINC001000186632   -0.6500
     13 C13        -9.8384   -3.4439   58.9649 C.2     1  ZINC001000186632    0.5100
     14 O14        -9.4858   -4.2524   59.7975 O.2     1  ZINC001000186632   -0.5100
     15 C15        -9.3397   -2.0236   59.0353 C.3     1  ZINC001000186632    0.1500
     16 N16       -10.1071   -1.2859   60.0418 N.am    1  ZINC001000186632   -0.9800
     17 C17       -10.2296   -1.6284   61.4668 C.3     1  ZINC001000186632    0.0800
     18 C18       -10.4531   -0.3526   62.3010 C.3     1  ZINC001000186632   -0.1300
     19 C19       -11.5290    0.4425   61.5062 C.3     1  ZINC001000186632   -0.6000
     20 S20       -10.9978    0.1030   59.7839 S.o2    1  ZINC001000186632    2.5700
     21 O21       -10.0620    1.0726   59.3328 O.2     1  ZINC001000186632   -0.9400
     22 O22       -12.0935   -0.3107   58.9791 O.2     1  ZINC001000186632   -0.9600
     23 C23       -11.3422   -5.0796   57.6065 C.3     1  ZINC001000186632    0.0900
     24 H24       -16.5274   -3.9777   58.2260 H       1  ZINC001000186632    0.1300
     25 H25       -16.0056   -5.1851   59.4253 H       1  ZINC001000186632    0.1200
     26 H26       -14.0988   -1.8754   62.3300 H       1  ZINC001000186632    0.4400
     27 H27       -14.9154   -0.1442   60.6274 H       1  ZINC001000186632    0.2200
     28 H28       -13.5361   -2.9636   58.2034 H       1  ZINC001000186632    0.4100
     29 H29       -12.7082   -4.5783   55.9356 H       1  ZINC001000186632    0.1200
     30 H30       -10.7017   -3.1663   55.9176 H       1  ZINC001000186632    0.1000
     31 H31       -11.6479   -2.1179   57.0628 H       1  ZINC001000186632    0.0900
     32 H32        -8.2848   -2.0221   59.3097 H       1  ZINC001000186632    0.1100
     33 H33        -9.4629   -1.5467   58.0630 H       1  ZINC001000186632    0.1100
     34 H34       -11.0746   -2.3029   61.6049 H       1  ZINC001000186632    0.0800
     35 H35        -9.3165   -2.1222   61.7994 H       1  ZINC001000186632    0.0900
     36 H36       -10.8232   -0.6066   63.2942 H       1  ZINC001000186632    0.1100
     37 H37        -9.5299    0.2225   62.3727 H       1  ZINC001000186632    0.1000
     38 H38       -12.5284    0.0519   61.6977 H       1  ZINC001000186632    0.1400
     39 H39       -11.4755    1.5081   61.7294 H       1  ZINC001000186632    0.1400
     40 H40       -11.7317   -5.6369   58.4584 H       1  ZINC001000186632    0.0900
     41 H41       -10.7619   -5.6979   56.9216 H       1  ZINC001000186632    0.1100
@<TRIPOS>BOND
     1     1     2    2
     2     2     3    1
     3     2     9   am
     4     3     4    1
     5     3    24    1
     6     3    25    1
     7     4     8    1
     8     4     5    2
     9     5     6    1
    10     6     7    1
    11     6    26    1
    12     7     8    2
    13     7    27    1
    14     9    10    1
    15     9    28    1
    16    10    23    1
    17    10    11    1
    18    10    29    1
    19    11    12    1
    20    11    30    1
    21    11    31    1
    22    12    13   am
    23    12    23    1
    24    13    14    2
    25    13    15    1
    26    15    16    1
    27    15    32    1
    28    15    33    1
    29    16    20   am
    30    16    17    1
    31    17    18    1
    32    17    34    1
    33    17    35    1
    34    18    19    1
    35    18    36    1
    36    18    37    1
    37    19    20    1
    38    19    38    1
    39    19    39    1
    40    20    21    2
    41    20    22    2
    42    23    40    1
    43    23    41    1
@<TRIPOS>SUBSTRUCTURE
     1 ZINC001000186632        1 TEMP              0 ****  ****    0 ROOT


##########                                Name:    ZINC000194290865
##########                DOCK_Rotatable_Bonds:                   7
##########                         Heavy_Atoms:                  28
##########                    Molecular_Weight:             387.479
##########                DOCK_Rotatable_Bonds:                   7
##########                       Formal_Charge:          -0.0400003
##########                     HBond_Acceptors:                   7
##########                        HBond_Donors:                   0
##########                         Heavy_Atoms:                  28
##########                          Grid_Score:          -33.723518
##########                     Grid_vdw_energy:          -33.194393
##########                      Grid_es_energy:           -0.529125
##########           Internal_energy_repulsive:           38.059967

@<TRIPOS>MOLECULE
ZINC000194290865
 57 59 1 0 0
SMALL
USER_CHARGES


@<TRIPOS>ATOM
      1 C1        -11.0353    0.1922   63.3165 C.3     1  ZINC000194290865   -0.1500
      2 C2        -10.5968    0.3394   61.8581 C.3     1  ZINC000194290865    0.0600
      3 O3        -11.2789   -0.6515   61.0452 O.3     1  ZINC000194290865   -0.3600
      4 C4        -10.9772   -0.6794   59.7376 C.2     1  ZINC000194290865    0.4700
      5 O5        -10.1542    0.0842   59.2910 O.2     1  ZINC000194290865   -0.4900
      6 C6        -11.6650   -1.6631   58.8263 C.3     1  ZINC000194290865   -0.0600
      7 C7        -11.1184   -3.0732   59.0584 C.3     1  ZINC000194290865   -0.0700
      8 C8        -11.7342   -4.0332   58.0384 C.3     1  ZINC000194290865   -0.1700
      9 C9         -9.5972   -3.0636   58.8960 C.3     1  ZINC000194290865   -0.1600
     10 C10       -13.1934   -1.6322   59.0581 C.3     1  ZINC000194290865   -0.1200
     11 C11       -13.6931   -0.6904   57.9338 C.3     1  ZINC000194290865    0.0900
     12 N12       -12.8202   -1.0360   56.7882 N.am    1  ZINC000194290865   -0.6100
     13 C13       -13.1807   -1.1329   55.4932 C.2     1  ZINC000194290865    0.5800
     14 O14       -14.3327   -0.9260   55.1660 O.2     1  ZINC000194290865   -0.5000
     15 C15       -12.1737   -1.4913   54.4695 C.ar    1  ZINC000194290865    0.0100
     16 C16       -12.1691   -2.7646   53.8680 C.ar    1  ZINC000194290865   -0.2200
     17 C17       -11.1950   -3.0641   52.9001 C.ar    1  ZINC000194290865    0.3000
     18 N18       -10.2944   -2.1541   52.5622 N.ar    1  ZINC000194290865   -0.4700
     19 C19       -10.2741   -0.9564   53.1071 C.ar    1  ZINC000194290865    0.2100
     20 C20        -9.2202    0.0298   52.6740 C.3     1  ZINC000194290865   -0.1100
     21 C21       -11.2012   -0.5773   54.0644 C.ar    1  ZINC000194290865   -0.1800
     22 O22       -11.4205   -4.3311   52.4976 O.3     1  ZINC000194290865   -0.0800
     23 N23       -12.5317   -4.8554   53.1957 N.2     1  ZINC000194290865   -0.2600
     24 C24       -12.9985   -3.9604   54.0120 C.2     1  ZINC000194290865    0.1600
     25 C25       -14.1769   -4.1237   54.9371 C.3     1  ZINC000194290865   -0.0400
     26 C26       -15.4719   -3.8687   54.1635 C.3     1  ZINC000194290865   -0.1500
     27 C27       -14.1904   -5.5466   55.4995 C.3     1  ZINC000194290865   -0.1400
     28 C28       -11.4755   -1.2515   57.3544 C.3     1  ZINC000194290865    0.1200
     29 H29       -12.1125    0.3420   63.3889 H       1  ZINC000194290865    0.0700
     30 H30       -10.7826   -0.8065   63.6728 H       1  ZINC000194290865    0.0700
     31 H31       -10.5231    0.9361   63.9268 H       1  ZINC000194290865    0.0800
     32 H32       -10.8495    1.3381   61.5018 H       1  ZINC000194290865    0.0700
     33 H33        -9.5196    0.1896   61.7858 H       1  ZINC000194290865    0.0700
     34 H34       -11.3742   -3.4006   60.0661 H       1  ZINC000194290865    0.0900
     35 H35       -12.8180   -4.0400   58.1542 H       1  ZINC000194290865    0.0500
     36 H36       -11.4784   -3.7056   57.0307 H       1  ZINC000194290865    0.0800
     37 H37       -11.3449   -5.0377   58.2038 H       1  ZINC000194290865    0.0600
     38 H38        -9.1584   -2.3798   59.6225 H       1  ZINC000194290865    0.0500
     39 H39        -9.2077   -4.0682   59.0613 H       1  ZINC000194290865    0.0600
     40 H40        -9.3413   -2.7361   57.8883 H       1  ZINC000194290865    0.0800
     41 H41       -13.6211   -2.6284   58.9457 H       1  ZINC000194290865    0.0900
     42 H42       -13.4265   -1.2193   60.0395 H       1  ZINC000194290865    0.0900
     43 H43       -14.7373   -0.8944   57.6970 H       1  ZINC000194290865    0.0900
     44 H44       -13.5590    0.3533   58.2183 H       1  ZINC000194290865    0.0900
     45 H45        -9.5928    0.6136   51.8323 H       1  ZINC000194290865    0.0900
     46 H46        -8.9844    0.6971   53.5030 H       1  ZINC000194290865    0.0900
     47 H47        -8.3210   -0.5080   52.3734 H       1  ZINC000194290865    0.0900
     48 H48       -11.1659    0.4112   54.4980 H       1  ZINC000194290865    0.1600
     49 H49       -14.0968   -3.4098   55.7569 H       1  ZINC000194290865    0.1100
     50 H50       -15.5520   -4.5826   53.3436 H       1  ZINC000194290865    0.0700
     51 H51       -16.3242   -3.9868   54.8326 H       1  ZINC000194290865    0.0700
     52 H52       -15.4623   -2.8550   53.7628 H       1  ZINC000194290865    0.0600
     53 H53       -13.2678   -5.7282   56.0507 H       1  ZINC000194290865    0.0600
     54 H54       -15.0427   -5.6646   56.1686 H       1  ZINC000194290865    0.0700
     55 H55       -14.2704   -6.2604   54.6798 H       1  ZINC000194290865    0.0600
     56 H56       -10.8970   -0.3294   57.2983 H       1  ZINC000194290865    0.0800
     57 H57       -10.9662   -2.0462   56.8092 H       1  ZINC000194290865    0.1000
@<TRIPOS>BOND
     1     1     2    1
     2     1    29    1
     3     1    30    1
     4     1    31    1
     5     2     3    1
     6     2    32    1
     7     2    33    1
     8     3     4    1
     9     4     5    2
    10     4     6    1
    11     6    28    1
    12     6     7    1
    13     6    10    1
    14     7     8    1
    15     7     9    1
    16     7    34    1
    17     8    35    1
    18     8    36    1
    19     8    37    1
    20     9    38    1
    21     9    39    1
    22     9    40    1
    23    10    11    1
    24    10    41    1
    25    10    42    1
    26    11    12    1
    27    11    43    1
    28    11    44    1
    29    12    13   am
    30    12    28    1
    31    13    14    2
    32    13    15    1
    33    15    21   ar
    34    15    16   ar
    35    16    24    1
    36    16    17   ar
    37    17    18   ar
    38    17    22    1
    39    18    19   ar
    40    19    20    1
    41    19    21   ar
    42    20    45    1
    43    20    46    1
    44    20    47    1
    45    21    48    1
    46    22    23    1
    47    23    24    2
    48    24    25    1
    49    25    26    1
    50    25    27    1
    51    25    49    1
    52    26    50    1
    53    26    51    1
    54    26    52    1
    55    27    53    1
    56    27    54    1
    57    27    55    1
    58    28    56    1
    59    28    57    1
@<TRIPOS>SUBSTRUCTURE
     1 ZINC000194290865        1 TEMP              0 ****  ****    0 ROOT


##########                                Name:    ZINC000751548479
##########                DOCK_Rotatable_Bonds:                   9
##########                         Heavy_Atoms:                  27
##########                    Molecular_Weight:             389.407
##########                DOCK_Rotatable_Bonds:                   9
##########                       Formal_Charge:           0.0199995
##########                     HBond_Acceptors:                   9
##########                        HBond_Donors:                   2
##########                         Heavy_Atoms:                  27
##########                          Grid_Score:          -33.718822
##########                     Grid_vdw_energy:          -31.637966
##########                      Grid_es_energy:           -2.080856
##########           Internal_energy_repulsive:           15.066287

@<TRIPOS>MOLECULE
ZINC000751548479
 43 44 1 0 0
SMALL
USER_CHARGES


@<TRIPOS>ATOM
      1 C1        -15.5630   -4.4056   57.7332 C.3     1  ZINC000751548479   -0.1600
      2 C2        -14.4640   -3.6143   58.4453 C.3     1  ZINC000751548479    0.0800
      3 O3        -14.8095   -3.4601   59.8471 O.3     1  ZINC000751548479   -0.3600
      4 C4        -13.8915   -2.8791   60.6426 C.2     1  ZINC000751548479    0.6500
      5 O5        -13.9383   -3.0443   61.8455 O.2     1  ZINC000751548479   -0.5400
      6 N6        -12.9210   -2.1143   60.1045 N.am    1  ZINC000751548479   -0.6500
      7 C7        -11.9689   -1.5117   60.9295 C.ar    1  ZINC000751548479    0.2000
      8 C8        -12.3483   -0.5142   61.8159 C.ar    1  ZINC000751548479   -0.1000
      9 C9        -11.4084    0.0825   62.6321 C.ar    1  ZINC000751548479   -0.1000
     10 C10       -10.0756   -0.3104   62.5727 C.ar    1  ZINC000751548479    0.1300
     11 N11        -9.1301    0.3008   63.4039 N.am    1  ZINC000751548479   -1.0500
     12 S12        -9.2249    0.1100   65.0461 S.o2    1  ZINC000751548479    2.6800
     13 O13       -10.4143    0.7689   65.4587 O.2     1  ZINC000751548479   -0.9500
     14 O14        -8.9668   -1.2629   65.3061 O.2     1  ZINC000751548479   -0.9400
     15 C15        -7.8860    1.0108   65.7538 C.2     1  ZINC000751548479   -0.7500
     16 C16        -8.0818    2.2402   66.2098 C.2     1  ZINC000751548479    0.0700
     17 C17        -6.9592    2.9951   66.8050 C.ar    1  ZINC000751548479   -0.1100
     18 C18        -5.6910    2.4181   66.8836 C.ar    1  ZINC000751548479   -0.0600
     19 C19        -4.6467    3.1271   67.4396 C.ar    1  ZINC000751548479   -0.1600
     20 C20        -4.8552    4.4100   67.9202 C.ar    1  ZINC000751548479    0.1200
     21 F21        -3.8290    5.1000   68.4643 F       1  ZINC000751548479   -0.1300
     22 C22        -6.1124    4.9877   67.8442 C.ar    1  ZINC000751548479   -0.1600
     23 C23        -7.1624    4.2895   67.2853 C.ar    1  ZINC000751548479   -0.0500
     24 C24        -9.6819   -1.3053   61.6936 C.ar    1  ZINC000751548479   -0.0600
     25 C25       -10.6274   -1.9173   60.8682 C.ar    1  ZINC000751548479   -0.0300
     26 C26       -10.2281   -2.9472   59.9569 C.1     1  ZINC000751548479    0.2500
     27 N27        -9.9112   -3.7642   59.2340 N.1     1  ZINC000751548479   -0.4000
     28 H28       -16.5088   -3.8704   57.8176 H       1  ZINC000751548479    0.0700
     29 H29       -15.3036   -4.5213   56.6809 H       1  ZINC000751548479    0.0900
     30 H30       -15.6595   -5.3887   58.1938 H       1  ZINC000751548479    0.0700
     31 H31       -13.5182   -4.1495   58.3608 H       1  ZINC000751548479    0.0800
     32 H32       -14.3675   -2.6312   57.9846 H       1  ZINC000751548479    0.0800
     33 H33       -12.8837   -1.9825   59.1443 H       1  ZINC000751548479    0.4200
     34 H34       -13.3814   -0.2036   61.8673 H       1  ZINC000751548479    0.1600
     35 H35       -11.7095    0.8588   63.3200 H       1  ZINC000751548479    0.1700
     36 H36        -8.4193    0.8363   63.0180 H       1  ZINC000751548479    0.4300
     37 H37        -6.9060    0.5614   65.8161 H       1  ZINC000751548479    0.1700
     38 H38        -9.0616    2.6901   66.1462 H       1  ZINC000751548479    0.1500
     39 H39        -5.5276    1.4180   66.5100 H       1  ZINC000751548479    0.1400
     40 H40        -3.6648    2.6814   67.5009 H       1  ZINC000751548479    0.1400
     41 H41        -6.2695    5.9880   68.2199 H       1  ZINC000751548479    0.1400
     42 H42        -8.1417    4.7408   67.2262 H       1  ZINC000751548479    0.1400
     43 H43        -8.6465   -1.6094   61.6487 H       1  ZINC000751548479    0.1500
@<TRIPOS>BOND
     1     1     2    1
     2     1    28    1
     3     1    29    1
     4     1    30    1
     5     2     3    1
     6     2    31    1
     7     2    32    1
     8     3     4    1
     9     4     5    2
    10     4     6   am
    11     6     7    1
    12     6    33    1
    13     7    25   ar
    14     7     8   ar
    15     8     9   ar
    16     8    34    1
    17     9    10   ar
    18     9    35    1
    19    10    11    1
    20    10    24   ar
    21    11    12   am
    22    11    36    1
    23    12    13    2
    24    12    14    2
    25    12    15    1
    26    15    16    2
    27    15    37    1
    28    16    17    1
    29    16    38    1
    30    17    23   ar
    31    17    18   ar
    32    18    19   ar
    33    18    39    1
    34    19    20   ar
    35    19    40    1
    36    20    21    1
    37    20    22   ar
    38    22    23   ar
    39    22    41    1
    40    23    42    1
    41    24    25   ar
    42    24    43    1
    43    25    26    1
    44    26    27    3
@<TRIPOS>SUBSTRUCTURE
     1 ZINC000751548479        1 TEMP              0 ****  ****    0 ROOT


##########                                Name:    ZINC000329637067
##########                DOCK_Rotatable_Bonds:                   5
##########                         Heavy_Atoms:                  26
##########                    Molecular_Weight:             362.429
##########                DOCK_Rotatable_Bonds:                   5
##########                       Formal_Charge:           0.0199998
##########                     HBond_Acceptors:                   8
##########                        HBond_Donors:                   0
##########                         Heavy_Atoms:                  26
##########                          Grid_Score:          -33.714996
##########                     Grid_vdw_energy:          -32.686291
##########                      Grid_es_energy:           -1.028707
##########           Internal_energy_repulsive:           25.939663

@<TRIPOS>MOLECULE
ZINC000329637067
 52 54 1 0 0
SMALL
USER_CHARGES


@<TRIPOS>ATOM
      1 C1        -11.7840    0.6316   59.2449 C.3     1  ZINC000329637067   -0.1300
      2 C2        -11.0448   -0.2014   60.2602 C.2     1  ZINC000329637067    0.2200
      3 C3        -10.5465    0.3712   61.3890 C.2     1  ZINC000329637067   -0.2900
      4 C4         -9.8654   -0.4275   62.3123 C.2     1  ZINC000329637067    0.2800
      5 C5         -9.3044    0.1832   63.5706 C.3     1  ZINC000329637067   -0.1200
      6 N6         -9.7154   -1.7157   62.0798 N.2     1  ZINC000329637067   -0.5500
      7 C7        -10.2068   -2.2722   60.9699 C.2     1  ZINC000329637067    0.6400
      8 O8        -10.0544   -3.4669   60.7784 O.2     1  ZINC000329637067   -0.5300
      9 N9        -10.8729   -1.5345   60.0620 N.am    1  ZINC000329637067   -0.5000
     10 C10       -11.4031   -2.1680   58.8521 C.3     1  ZINC000329637067    0.0700
     11 C11       -12.7806   -2.7114   59.1321 C.2     1  ZINC000329637067    0.5100
     12 O12       -13.3142   -2.4910   60.1988 O.2     1  ZINC000329637067   -0.5200
     13 N13       -13.4196   -3.4422   58.1972 N.am    1  ZINC000329637067   -0.6100
     14 C14       -14.7628   -3.9787   58.4556 C.3     1  ZINC000329637067    0.1000
     15 C15       -15.6950   -3.5414   57.3214 C.3     1  ZINC000329637067   -0.1400
     16 C16       -15.0949   -3.9684   55.9799 C.3     1  ZINC000329637067   -0.1000
     17 C17       -13.7409   -3.2831   55.7835 C.3     1  ZINC000329637067   -0.1200
     18 H18       -13.8722   -2.2015   55.8174 H       1  ZINC000329637067    0.1000
     19 C19       -13.1660   -3.6782   54.4477 C.2     1  ZINC000329637067    0.5300
     20 O20       -13.6389   -4.6130   53.8366 O.2     1  ZINC000329637067   -0.5300
     21 N21       -12.1263   -2.9928   53.9321 N.am    1  ZINC000329637067   -0.6200
     22 C22       -11.5522   -3.3562   52.6268 C.3     1  ZINC000329637067    0.0800
     23 C23       -11.4634   -2.0894   51.7682 C.3     1  ZINC000329637067    0.0500
     24 O24       -10.7789   -1.0708   52.5016 O.3     1  ZINC000329637067   -0.3800
     25 C25       -11.4443   -0.6649   53.7000 C.3     1  ZINC000329637067    0.0500
     26 C26       -11.5358   -1.8553   54.6549 C.3     1  ZINC000329637067    0.0700
     27 C27       -12.7890   -3.7123   56.8980 C.3     1  ZINC000329637067    0.1200
     28 H28       -12.7726    0.2050   59.0753 H       1  ZINC000329637067    0.0900
     29 H29       -11.8870    1.6510   59.6169 H       1  ZINC000329637067    0.1000
     30 H30       -11.2270    0.6413   58.3080 H       1  ZINC000329637067    0.0900
     31 H31       -10.6750    1.4283   61.5692 H       1  ZINC000329637067    0.1600
     32 H32       -10.0537    0.1392   64.3611 H       1  ZINC000329637067    0.1000
     33 H33        -8.4177   -0.3705   63.8793 H       1  ZINC000329637067    0.0900
     34 H34        -9.0362    1.2227   63.3816 H       1  ZINC000329637067    0.0900
     35 H35       -11.4592   -1.4312   58.0509 H       1  ZINC000329637067    0.1200
     36 H36       -10.7452   -2.9833   58.5508 H       1  ZINC000329637067    0.1300
     37 H37       -14.7203   -5.0672   58.4945 H       1  ZINC000329637067    0.0800
     38 H38       -15.1348   -3.5915   59.4042 H       1  ZINC000329637067    0.0900
     39 H39       -16.6700   -4.0116   57.4500 H       1  ZINC000329637067    0.0900
     40 H40       -15.8081   -2.4574   57.3409 H       1  ZINC000329637067    0.0700
     41 H41       -14.9593   -5.0499   55.9706 H       1  ZINC000329637067    0.0800
     42 H42       -15.7683   -3.6802   55.1727 H       1  ZINC000329637067    0.0800
     43 H43       -10.5557   -3.7747   52.7677 H       1  ZINC000329637067    0.0800
     44 H44       -12.1925   -4.0887   52.1353 H       1  ZINC000329637067    0.1000
     45 H45       -10.9157   -2.3084   50.8516 H       1  ZINC000329637067    0.1100
     46 H46       -12.4679   -1.7465   51.5200 H       1  ZINC000329637067    0.0600
     47 H47       -10.8829    0.1407   54.1732 H       1  ZINC000329637067    0.1100
     48 H48       -12.4486   -0.3170   53.4588 H       1  ZINC000329637067    0.0600
     49 H49       -12.1629   -1.5947   55.5075 H       1  ZINC000329637067    0.1000
     50 H50       -10.5382   -2.1255   55.0013 H       1  ZINC000329637067    0.0800
     51 H51       -11.8574   -3.1518   56.8190 H       1  ZINC000329637067    0.1000
     52 H52       -12.5840   -4.7794   56.8127 H       1  ZINC000329637067    0.0800
@<TRIPOS>BOND
     1     1     2    1
     2     1    28    1
     3     1    29    1
     4     1    30    1
     5     2     9    1
     6     2     3    2
     7     3     4    1
     8     3    31    1
     9     4     5    1
    10     4     6    2
    11     5    32    1
    12     5    33    1
    13     5    34    1
    14     6     7    1
    15     7     8    2
    16     7     9   am
    17     9    10    1
    18    10    11    1
    19    10    35    1
    20    10    36    1
    21    11    12    2
    22    11    13   am
    23    13    27    1
    24    13    14    1
    25    14    15    1
    26    14    37    1
    27    14    38    1
    28    15    16    1
    29    15    39    1
    30    15    40    1
    31    16    17    1
    32    16    41    1
    33    16    42    1
    34    17    18    1
    35    17    19    1
    36    17    27    1
    37    19    20    2
    38    19    21   am
    39    21    26    1
    40    21    22    1
    41    22    23    1
    42    22    43    1
    43    22    44    1
    44    23    24    1
    45    23    45    1
    46    23    46    1
    47    24    25    1
    48    25    26    1
    49    25    47    1
    50    25    48    1
    51    26    49    1
    52    26    50    1
    53    27    51    1
    54    27    52    1
@<TRIPOS>SUBSTRUCTURE
     1 ZINC000329637067        1 TEMP              0 ****  ****    0 ROOT


##########                                Name:    ZINC000410354665
##########                DOCK_Rotatable_Bonds:                   7
##########                         Heavy_Atoms:                  29
##########                    Molecular_Weight:             417.889
##########                DOCK_Rotatable_Bonds:                   7
##########                       Formal_Charge:        -3.72529e-08
##########                     HBond_Acceptors:                   7
##########                        HBond_Donors:                   1
##########                         Heavy_Atoms:                  29
##########                          Grid_Score:          -33.678913
##########                     Grid_vdw_energy:          -32.066032
##########                      Grid_es_energy:           -1.612879
##########           Internal_energy_repulsive:           19.248547

@<TRIPOS>MOLECULE
ZINC000410354665
 53 56 1 0 0
SMALL
USER_CHARGES


@<TRIPOS>ATOM
      1 C1         -9.9890    1.3468   56.2686 C.3     1  ZINC000410354665    0.0200
      2 O2        -10.6029    0.4466   55.3442 O.3     1  ZINC000410354665   -0.3000
      3 C3        -10.7974   -0.8323   55.7643 C.ar    1  ZINC000410354665    0.0900
      4 C4        -10.5116   -1.1813   57.0696 C.ar    1  ZINC000410354665   -0.1100
      5 C5        -10.7132   -2.4964   57.4980 C.ar    1  ZINC000410354665   -0.1400
      6 C6        -10.4098   -2.8747   58.8922 C.2     1  ZINC000410354665    0.5700
      7 O7        -10.4668   -4.0407   59.2318 O.2     1  ZINC000410354665   -0.5300
      8 N8        -10.0699   -1.9275   59.7886 N.am    1  ZINC000410354665   -0.7200
      9 C9         -9.7671   -2.3031   61.1719 C.3     1  ZINC000410354665    0.1700
     10 C10       -10.2998   -1.2482   62.1070 C.ar    1  ZINC000410354665   -0.1000
     11 C11       -11.5894   -0.7759   61.9513 C.ar    1  ZINC000410354665   -0.0900
     12 C12       -12.0809    0.1941   62.8063 C.ar    1  ZINC000410354665   -0.0300
     13 Cl13      -13.7010    0.7854   62.6076 Cl      1  ZINC000410354665   -0.0400
     14 C14       -11.2801    0.6944   63.8231 C.ar    1  ZINC000410354665    0.0700
     15 O15       -11.7745    1.6543   64.6523 O.3     1  ZINC000410354665   -0.2900
     16 C16       -11.0757    1.8626   65.8844 C.3     1  ZINC000410354665    0.0200
     17 C17        -9.5730    1.9276   65.5798 C.3     1  ZINC000410354665    0.0200
     18 O18        -9.1842    0.6895   64.9750 O.3     1  ZINC000410354665   -0.3000
     19 C19        -9.9850    0.2162   63.9813 C.ar    1  ZINC000410354665    0.0600
     20 C20        -9.4997   -0.7587   63.1224 C.ar    1  ZINC000410354665   -0.0900
     21 C21       -11.2025   -3.4516   56.6043 C.ar    1  ZINC000410354665   -0.0800
     22 C22       -11.4852   -3.0968   55.3028 C.ar    1  ZINC000410354665   -0.1900
     23 C23       -11.2907   -1.7897   54.8786 C.ar    1  ZINC000410354665    0.1400
     24 O24       -11.5708   -1.4451   53.5954 O.3     1  ZINC000410354665   -0.2900
     25 C25       -12.4301   -2.3198   52.8615 C.3     1  ZINC000410354665    0.0700
     26 C26       -13.8455   -2.3423   53.4901 C.3     1  ZINC000410354665   -0.1500
     27 C27       -14.7383   -2.7893   52.3060 C.3     1  ZINC000410354665   -0.1200
     28 C28       -14.1261   -2.0787   51.0812 C.3     1  ZINC000410354665   -0.1200
     29 C29       -12.6584   -1.7802   51.4345 C.3     1  ZINC000410354665   -0.1200
     30 H30       -10.6048    1.4234   57.1647 H       1  ZINC000410354665    0.0600
     31 H31        -9.0009    0.9735   56.5377 H       1  ZINC000410354665    0.0600
     32 H32        -9.8930    2.3303   55.8087 H       1  ZINC000410354665    0.1000
     33 H33       -10.1330   -0.4399   57.7575 H       1  ZINC000410354665    0.1500
     34 H34       -10.0256   -0.9971   59.5180 H       1  ZINC000410354665    0.4000
     35 H35       -10.2360   -3.2605   61.3994 H       1  ZINC000410354665    0.0800
     36 H36        -8.6877   -2.3884   61.2974 H       1  ZINC000410354665    0.0900
     37 H37       -12.2140   -1.1644   61.1607 H       1  ZINC000410354665    0.1500
     38 H38       -11.3999    2.7998   66.3369 H       1  ZINC000410354665    0.1300
     39 H39       -11.2773    1.0359   66.5655 H       1  ZINC000410354665    0.0800
     40 H40        -9.3722    2.7507   64.8940 H       1  ZINC000410354665    0.0800
     41 H41        -9.0165    2.0754   66.5052 H       1  ZINC000410354665    0.1300
     42 H42        -8.4942   -1.1333   63.2448 H       1  ZINC000410354665    0.1400
     43 H43       -11.3591   -4.4683   56.9331 H       1  ZINC000410354665    0.1300
     44 H44       -11.8633   -3.8366   54.6128 H       1  ZINC000410354665    0.1400
     45 H45       -12.0099   -3.3249   52.8266 H       1  ZINC000410354665    0.0800
     46 H46       -13.8947   -3.0643   54.3052 H       1  ZINC000410354665    0.0700
     47 H47       -14.1307   -1.3485   53.8353 H       1  ZINC000410354665    0.0800
     48 H48       -14.6932   -3.8712   52.1814 H       1  ZINC000410354665    0.0700
     49 H49       -15.7673   -2.4647   52.4604 H       1  ZINC000410354665    0.0700
     50 H50       -14.1751   -2.7301   50.2085 H       1  ZINC000410354665    0.0700
     51 H51       -14.6592   -1.1487   50.8840 H       1  ZINC000410354665    0.0700
     52 H52       -12.4794   -0.7053   51.4085 H       1  ZINC000410354665    0.0800
     53 H53       -11.9952   -2.2866   50.7332 H       1  ZINC000410354665    0.0700
@<TRIPOS>BOND
     1     1     2    1
     2     1    30    1
     3     1    31    1
     4     1    32    1
     5     2     3    1
     6     3    23   ar
     7     3     4   ar
     8     4     5   ar
     9     4    33    1
    10     5     6    1
    11     5    21   ar
    12     6     7    2
    13     6     8   am
    14     8     9    1
    15     8    34    1
    16     9    10    1
    17     9    35    1
    18     9    36    1
    19    10    20   ar
    20    10    11   ar
    21    11    12   ar
    22    11    37    1
    23    12    13    1
    24    12    14   ar
    25    14    19   ar
    26    14    15    1
    27    15    16    1
    28    16    17    1
    29    16    38    1
    30    16    39    1
    31    17    18    1
    32    17    40    1
    33    17    41    1
    34    18    19    1
    35    19    20   ar
    36    20    42    1
    37    21    22   ar
    38    21    43    1
    39    22    23   ar
    40    22    44    1
    41    23    24    1
    42    24    25    1
    43    25    29    1
    44    25    26    1
    45    25    45    1
    46    26    27    1
    47    26    46    1
    48    26    47    1
    49    27    28    1
    50    27    48    1
    51    27    49    1
    52    28    29    1
    53    28    50    1
    54    28    51    1
    55    29    52    1
    56    29    53    1
@<TRIPOS>SUBSTRUCTURE
     1 ZINC000410354665        1 TEMP              0 ****  ****    0 ROOT


##########                                Name:    ZINC000163855860
##########                DOCK_Rotatable_Bonds:                   6
##########                         Heavy_Atoms:                  28
##########                    Molecular_Weight:             398.483
##########                DOCK_Rotatable_Bonds:                   6
##########                       Formal_Charge:          -0.0100004
##########                     HBond_Acceptors:                   7
##########                        HBond_Donors:                   1
##########                         Heavy_Atoms:                  28
##########                          Grid_Score:          -33.664551
##########                     Grid_vdw_energy:          -33.265495
##########                      Grid_es_energy:           -0.399055
##########           Internal_energy_repulsive:           17.825489

@<TRIPOS>MOLECULE
ZINC000163855860
 50 53 1 0 0
SMALL
USER_CHARGES


@<TRIPOS>ATOM
      1 C1        -10.8511   -3.3639   57.7547 C.3     1  ZINC000163855860   -0.1300
      2 C2        -12.2582   -3.3281   58.2931 C.ar    1  ZINC000163855860   -0.0600
      3 C3        -13.3310   -3.5790   57.4522 C.ar    1  ZINC000163855860    0.1400
      4 N4        -13.1085   -3.8667   56.1008 N.am    1  ZINC000163855860   -0.6700
      5 C5        -13.3665   -2.9347   55.1620 C.2     1  ZINC000163855860    0.5100
      6 O6        -13.7914   -1.8467   55.4884 O.2     1  ZINC000163855860   -0.5100
      7 C7        -13.1268   -3.2446   53.7068 C.3     1  ZINC000163855860   -0.1300
      8 C8        -11.6591   -2.9812   53.3643 C.3     1  ZINC000163855860   -0.1100
      9 H9        -11.0120   -3.7287   53.8233 H       1  ZINC000163855860    0.1100
     10 C10       -11.4503   -2.9376   51.8334 C.3     1  ZINC000163855860    0.0600
     11 O11       -10.4151   -1.9295   51.6361 O.3     1  ZINC000163855860   -0.3500
     12 C12       -10.4953   -0.9986   52.5976 C.2     1  ZINC000163855860    0.4800
     13 O13       -10.0398    0.1180   52.5231 O.2     1  ZINC000163855860   -0.4500
     14 C14       -11.2418   -1.5560   53.7901 C.3     1  ZINC000163855860   -0.1800
     15 C15       -14.6276   -3.5506   57.9524 C.ar    1  ZINC000163855860   -0.1100
     16 C16       -14.8525   -3.2679   59.2864 C.ar    1  ZINC000163855860   -0.1100
     17 C17       -13.7913   -3.0120   60.1311 C.ar    1  ZINC000163855860   -0.1000
     18 C18       -12.4856   -3.0376   59.6384 C.ar    1  ZINC000163855860   -0.1100
     19 C19       -11.3468   -2.7643   60.5410 C.2     1  ZINC000163855860    0.5700
     20 O20       -10.6191   -3.6720   60.8933 O.2     1  ZINC000163855860   -0.5300
     21 N21       -11.1156   -1.5089   60.9732 N.am    1  ZINC000163855860   -0.6100
     22 C22       -11.9837   -0.3963   60.5591 C.3     1  ZINC000163855860    0.1200
     23 C23       -12.7038    0.1436   61.8047 C.3     1  ZINC000163855860   -0.0600
     24 C24       -11.7007    0.2953   62.9284 C.2     1  ZINC000163855860   -0.1700
     25 C25       -10.4948   -0.3019   62.9757 C.2     1  ZINC000163855860   -0.1300
     26 C26        -9.7667   -0.0070   64.1240 C.2     1  ZINC000163855860   -0.1200
     27 C27       -10.3597    0.8118   64.9869 C.2     1  ZINC000163855860   -0.2100
     28 S28       -11.9392    1.2736   64.3708 S.3     1  ZINC000163855860    0.1100
     29 C29        -9.9857   -1.2146   61.8659 C.3     1  ZINC000163855860    0.1700
     30 H30       -10.5394   -2.3547   57.4854 H       1  ZINC000163855860    0.0700
     31 H31       -10.1804   -3.7601   58.5170 H       1  ZINC000163855860    0.0900
     32 H32       -10.8160   -4.0027   56.8722 H       1  ZINC000163855860    0.0700
     33 H33       -12.7685   -4.7369   55.8398 H       1  ZINC000163855860    0.4100
     34 H34       -13.7633   -2.6096   53.0905 H       1  ZINC000163855860    0.1100
     35 H35       -13.3627   -4.2912   53.5146 H       1  ZINC000163855860    0.1100
     36 H36       -12.3714   -2.6406   51.3319 H       1  ZINC000163855860    0.0800
     37 H37       -11.1121   -3.9070   51.4675 H       1  ZINC000163855860    0.1200
     38 H38       -10.5884   -1.5964   54.6616 H       1  ZINC000163855860    0.1200
     39 H39       -12.1227   -0.9504   54.0032 H       1  ZINC000163855860    0.1200
     40 H40       -15.4619   -3.7504   57.2965 H       1  ZINC000163855860    0.1500
     41 H41       -15.8621   -3.2476   59.6694 H       1  ZINC000163855860    0.1300
     42 H42       -13.9712   -2.7914   61.1729 H       1  ZINC000163855860    0.1300
     43 H43       -11.3791    0.3929   60.1122 H       1  ZINC000163855860    0.0800
     44 H44       -12.7167   -0.7536   59.8357 H       1  ZINC000163855860    0.1000
     45 H45       -13.4864   -0.5527   62.1061 H       1  ZINC000163855860    0.0900
     46 H46       -13.1464    1.1135   61.5779 H       1  ZINC000163855860    0.0900
     47 H47        -8.7836   -0.4169   64.3026 H       1  ZINC000163855860    0.1400
     48 H48        -9.9355    1.1431   65.9233 H       1  ZINC000163855860    0.1700
     49 H49        -9.6038   -2.1407   62.2955 H       1  ZINC000163855860    0.1000
     50 H50        -9.1951   -0.7130   61.3078 H       1  ZINC000163855860    0.0900
@<TRIPOS>BOND
     1     1     2    1
     2     1    30    1
     3     1    31    1
     4     1    32    1
     5     2    18   ar
     6     2     3   ar
     7     3     4    1
     8     3    15   ar
     9     4     5   am
    10     4    33    1
    11     5     6    2
    12     5     7    1
    13     7     8    1
    14     7    34    1
    15     7    35    1
    16     8     9    1
    17     8    14    1
    18     8    10    1
    19    10    11    1
    20    10    36    1
    21    10    37    1
    22    11    12    1
    23    12    13    2
    24    12    14    1
    25    14    38    1
    26    14    39    1
    27    15    16   ar
    28    15    40    1
    29    16    17   ar
    30    16    41    1
    31    17    18   ar
    32    17    42    1
    33    18    19    1
    34    19    20    2
    35    19    21   am
    36    21    29    1
    37    21    22    1
    38    22    23    1
    39    22    43    1
    40    22    44    1
    41    23    24    1
    42    23    45    1
    43    23    46    1
    44    24    28    1
    45    24    25    2
    46    25    26    1
    47    25    29    1
    48    26    27    2
    49    26    47    1
    50    27    28    1
    51    27    48    1
    52    29    49    1
    53    29    50    1
@<TRIPOS>SUBSTRUCTURE
     1 ZINC000163855860        1 TEMP              0 ****  ****    0 ROOT


##########                                Name:    ZINC000298969660
##########                DOCK_Rotatable_Bonds:                  10
##########                         Heavy_Atoms:                  29
##########                    Molecular_Weight:             397.474
##########                DOCK_Rotatable_Bonds:                  10
##########                       Formal_Charge:          -0.0100008
##########                     HBond_Acceptors:                   7
##########                        HBond_Donors:                   2
##########                         Heavy_Atoms:                  29
##########                          Grid_Score:          -33.642120
##########                     Grid_vdw_energy:          -33.134586
##########                      Grid_es_energy:           -0.507535
##########           Internal_energy_repulsive:           11.652485

@<TRIPOS>MOLECULE
ZINC000298969660
 56 58 1 0 0
SMALL
USER_CHARGES


@<TRIPOS>ATOM
      1 C1        -14.1184   -5.5734   55.4482 C.3     1  ZINC000298969660    0.0800
      2 N2        -13.0015   -4.7095   55.0579 N.am    1  ZINC000298969660   -0.6300
      3 C3        -12.7323   -4.4561   53.6404 C.3     1  ZINC000298969660    0.1400
      4 C4        -13.2453   -3.0644   53.2647 C.3     1  ZINC000298969660    0.0700
      5 H5        -12.8499   -2.3297   53.9660 H       1  ZINC000298969660    0.0500
      6 C6        -14.7752   -3.0519   53.3206 C.3     1  ZINC000298969660   -0.1500
      7 C7        -15.2830   -1.6739   52.8854 C.3     1  ZINC000298969660   -0.1200
      8 C8        -14.7500   -1.3651   51.4829 C.3     1  ZINC000298969660   -0.1600
      9 C9        -13.2211   -1.4428   51.4979 C.3     1  ZINC000298969660    0.0600
     10 O10       -12.8155   -2.7393   51.9411 O.3     1  ZINC000298969660   -0.3600
     11 C11       -12.2217   -4.1481   56.0029 C.2     1  ZINC000298969660    0.7100
     12 O12       -11.2956   -3.4300   55.6790 O.2     1  ZINC000298969660   -0.5400
     13 N13       -12.4684   -4.3826   57.3070 N.am    1  ZINC000298969660   -0.6900
     14 C14       -11.6587   -3.7996   58.2881 C.ar    1  ZINC000298969660    0.2000
     15 C15       -10.4539   -4.3947   58.6392 C.ar    1  ZINC000298969660   -0.1800
     16 C16        -9.6546   -3.8194   59.6083 C.ar    1  ZINC000298969660   -0.0600
     17 C17       -10.0512   -2.6510   60.2302 C.ar    1  ZINC000298969660   -0.2300
     18 C18       -11.2543   -2.0518   59.8833 C.ar    1  ZINC000298969660    0.1500
     19 O19       -11.6431   -0.9029   60.4962 O.3     1  ZINC000298969660   -0.2900
     20 C20       -10.7198    0.1876   60.4766 C.3     1  ZINC000298969660    0.0400
     21 C21       -10.7036    0.8073   59.1030 C.2     1  ZINC000298969660    0.5100
     22 O22       -11.6884    1.3774   58.6832 O.2     1  ZINC000298969660   -0.4900
     23 N23        -9.5947    0.7279   58.3410 N.am    1  ZINC000298969660   -0.6700
     24 C24        -9.5796    1.3034   57.0656 C.ar    1  ZINC000298969660    0.1400
     25 C25        -9.5552    2.6848   56.9257 C.ar    1  ZINC000298969660   -0.1400
     26 C26        -9.5403    3.2496   55.6655 C.ar    1  ZINC000298969660   -0.1000
     27 C27        -9.5504    2.4412   54.5437 C.ar    1  ZINC000298969660   -0.1300
     28 C28        -9.5752    1.0653   54.6795 C.ar    1  ZINC000298969660   -0.1000
     29 C29        -9.5834    0.4941   55.9371 C.ar    1  ZINC000298969660   -0.1200
     30 C30       -12.0559   -2.6229   58.9077 C.ar    1  ZINC000298969660   -0.1500
     31 H31       -13.7732   -6.6050   55.5171 H       1  ZINC000298969660    0.0600
     32 H32       -14.5038   -5.2538   56.4165 H       1  ZINC000298969660    0.0700
     33 H33       -14.9095   -5.5041   54.7016 H       1  ZINC000298969660    0.0800
     34 H34       -11.6587   -4.5086   53.4593 H       1  ZINC000298969660    0.1000
     35 H35       -13.2400   -5.2063   53.0342 H       1  ZINC000298969660    0.0900
     36 H36       -15.1705   -3.8144   52.6495 H       1  ZINC000298969660    0.0800
     37 H37       -15.1041   -3.2561   54.3396 H       1  ZINC000298969660    0.0700
     38 H38       -16.3729   -1.6753   52.8691 H       1  ZINC000298969660    0.0700
     39 H39       -14.9285   -0.9169   53.5850 H       1  ZINC000298969660    0.0600
     40 H40       -15.1448   -2.0936   50.7747 H       1  ZINC000298969660    0.0700
     41 H41       -15.0610   -0.3630   51.1875 H       1  ZINC000298969660    0.0700
     42 H42       -12.8383   -1.2660   50.4928 H       1  ZINC000298969660    0.0900
     43 H43       -12.8254   -0.6866   52.1760 H       1  ZINC000298969660    0.0400
     44 H44       -13.2072   -4.9556   57.5654 H       1  ZINC000298969660    0.4100
     45 H45       -10.1418   -5.3080   58.1545 H       1  ZINC000298969660    0.1300
     46 H46        -8.7185   -4.2839   59.8805 H       1  ZINC000298969660    0.1300
     47 H47        -9.4244   -2.2036   60.9874 H       1  ZINC000298969660    0.1300
     48 H48       -11.0247    0.9351   61.2089 H       1  ZINC000298969660    0.1000
     49 H49        -9.7223   -0.1765   60.7227 H       1  ZINC000298969660    0.1000
     50 H50        -8.8072    0.2720   58.6767 H       1  ZINC000298969660    0.4100
     51 H51        -9.5480    3.3167   57.8015 H       1  ZINC000298969660    0.1300
     52 H52        -9.5212    4.3239   55.5561 H       1  ZINC000298969660    0.1300
     53 H53        -9.5391    2.8854   53.5593 H       1  ZINC000298969660    0.1200
     54 H54        -9.5837    0.4366   53.8015 H       1  ZINC000298969660    0.1300
     55 H55        -9.6029   -0.5805   56.0425 H       1  ZINC000298969660    0.1300
     56 H56       -12.9922   -2.1581   58.6366 H       1  ZINC000298969660    0.1500
@<TRIPOS>BOND
     1     1     2    1
     2     1    31    1
     3     1    32    1
     4     1    33    1
     5     2     3    1
     6     2    11   am
     7     3     4    1
     8     3    34    1
     9     3    35    1
    10     4     5    1
    11     4    10    1
    12     4     6    1
    13     6     7    1
    14     6    36    1
    15     6    37    1
    16     7     8    1
    17     7    38    1
    18     7    39    1
    19     8     9    1
    20     8    40    1
    21     8    41    1
    22     9    10    1
    23     9    42    1
    24     9    43    1
    25    11    12    2
    26    11    13   am
    27    13    14    1
    28    13    44    1
    29    14    30   ar
    30    14    15   ar
    31    15    16   ar
    32    15    45    1
    33    16    17   ar
    34    16    46    1
    35    17    18   ar
    36    17    47    1
    37    18    19    1
    38    18    30   ar
    39    19    20    1
    40    20    21    1
    41    20    48    1
    42    20    49    1
    43    21    22    2
    44    21    23   am
    45    23    24    1
    46    23    50    1
    47    24    29   ar
    48    24    25   ar
    49    25    26   ar
    50    25    51    1
    51    26    27   ar
    52    26    52    1
    53    27    28   ar
    54    27    53    1
    55    28    29   ar
    56    28    54    1
    57    29    55    1
    58    30    56    1
@<TRIPOS>SUBSTRUCTURE
     1 ZINC000298969660        1 TEMP              0 ****  ****    0 ROOT


##########                                Name:    ZINC000655235556
##########                DOCK_Rotatable_Bonds:                   6
##########                         Heavy_Atoms:                  23
##########                    Molecular_Weight:             336.778
##########                DOCK_Rotatable_Bonds:                   6
##########                       Formal_Charge:         -0.00999996
##########                     HBond_Acceptors:                   8
##########                        HBond_Donors:                   2
##########                         Heavy_Atoms:                  23
##########                          Grid_Score:          -33.628700
##########                     Grid_vdw_energy:          -33.116211
##########                      Grid_es_energy:           -0.512490
##########           Internal_energy_repulsive:           11.192808

@<TRIPOS>MOLECULE
ZINC000655235556
 40 42 1 0 0
SMALL
USER_CHARGES


@<TRIPOS>ATOM
      1 C1        -11.8326    1.4564   60.2855 C.3     1  ZINC000655235556    0.0200
      2 O2        -10.9696    0.3173   60.2854 O.3     1  ZINC000655235556   -0.2700
      3 C3        -10.3927   -0.0183   61.4663 C.ar    1  ZINC000655235556    0.2000
      4 C4        -10.5460    0.8011   62.5737 C.ar    1  ZINC000655235556   -0.2100
      5 C5         -9.9578    0.4573   63.7766 C.ar    1  ZINC000655235556    0.0300
      6 Cl6       -10.1541    1.4884   65.1594 Cl      1  ZINC000655235556   -0.0500
      7 C7         -9.2123   -0.7069   63.8849 C.ar    1  ZINC000655235556   -0.1600
      8 C8         -9.0504   -1.5322   62.7936 C.ar    1  ZINC000655235556   -0.0300
      9 C9         -9.6436   -1.1987   61.5736 C.ar    1  ZINC000655235556   -0.1700
     10 C10        -9.4743   -2.0783   60.4020 C.2     1  ZINC000655235556    0.5700
     11 O11        -9.1380   -1.6080   59.3322 O.2     1  ZINC000655235556   -0.5100
     12 N12        -9.6922   -3.4033   60.5170 N.am    1  ZINC000655235556   -0.7300
     13 C13        -9.5223   -4.2774   59.3535 C.3     1  ZINC000655235556    0.2100
     14 C14       -10.8201   -4.3578   58.5919 C.2     1  ZINC000655235556    0.2600
     15 N15       -11.7435   -3.4320   58.5474 N.2     1  ZINC000655235556   -0.5100
     16 C16       -12.7543   -3.8383   57.7803 C.2     1  ZINC000655235556    0.2200
     17 C17       -14.0029   -3.0475   57.4858 C.3     1  ZINC000655235556    0.1700
     18 H18       -13.8393   -2.4077   56.6187 H       1  ZINC000655235556    0.1100
     19 C19       -14.3774   -2.1849   58.7101 C.3     1  ZINC000655235556   -0.1400
     20 C20       -15.9262   -2.2985   58.7321 C.3     1  ZINC000655235556   -0.1500
     21 C21       -16.1220   -3.7479   58.2205 C.3     1  ZINC000655235556    0.0500
     22 O22       -15.0945   -3.9396   57.2324 O.3     1  ZINC000655235556   -0.3700
     23 N23       -12.4869   -5.0337   57.3240 N.2     1  ZINC000655235556   -0.2800
     24 N24       -11.2284   -5.3910   57.8350 N.pl3   1  ZINC000655235556   -0.4700
     25 H25       -12.6580    1.2868   60.9770 H       1  ZINC000655235556    0.0600
     26 H26       -11.2718    2.3371   60.5983 H       1  ZINC000655235556    0.0600
     27 H27       -12.2264    1.6140   59.2814 H       1  ZINC000655235556    0.1100
     28 H28       -11.1253    1.7093   62.4966 H       1  ZINC000655235556    0.1500
     29 H29        -8.7565   -0.9675   64.8285 H       1  ZINC000655235556    0.1400
     30 H30        -8.4687   -2.4378   62.8824 H       1  ZINC000655235556    0.1400
     31 H31        -9.9616   -3.7783   61.3701 H       1  ZINC000655235556    0.4000
     32 H32        -8.7451   -3.8725   58.7054 H       1  ZINC000655235556    0.1000
     33 H33        -9.2343   -5.2743   59.6870 H       1  ZINC000655235556    0.1100
     34 H34       -13.9452   -2.5971   59.6219 H       1  ZINC000655235556    0.0800
     35 H35       -14.0664   -1.1503   58.5654 H       1  ZINC000655235556    0.0900
     36 H36       -16.3141   -2.1834   59.7442 H       1  ZINC000655235556    0.0900
     37 H37       -16.3826   -1.5775   58.0540 H       1  ZINC000655235556    0.0800
     38 H38       -15.9984   -4.4578   59.0384 H       1  ZINC000655235556    0.0600
     39 H39       -17.1070   -3.8593   57.7674 H       1  ZINC000655235556    0.0900
     40 H40       -10.7516   -6.2210   57.6781 H       1  ZINC000655235556    0.4400
@<TRIPOS>BOND
     1     1     2    1
     2     1    25    1
     3     1    26    1
     4     1    27    1
     5     2     3    1
     6     3     9   ar
     7     3     4   ar
     8     4     5   ar
     9     4    28    1
    10     5     6    1
    11     5     7   ar
    12     7     8   ar
    13     7    29    1
    14     8     9   ar
    15     8    30    1
    16     9    10    1
    17    10    11    2
    18    10    12   am
    19    12    13    1
    20    12    31    1
    21    13    14    1
    22    13    32    1
    23    13    33    1
    24    14    24    1
    25    14    15    2
    26    15    16    1
    27    16    17    1
    28    16    23    2
    29    17    18    1
    30    17    22    1
    31    17    19    1
    32    19    20    1
    33    19    34    1
    34    19    35    1
    35    20    21    1
    36    20    36    1
    37    20    37    1
    38    21    22    1
    39    21    38    1
    40    21    39    1
    41    23    24    1
    42    24    40    1
@<TRIPOS>SUBSTRUCTURE
     1 ZINC000655235556        1 TEMP              0 ****  ****    0 ROOT


##########                                Name:    ZINC001058079801
##########                DOCK_Rotatable_Bonds:                   7
##########                         Heavy_Atoms:                  24
##########                    Molecular_Weight:             349.457
##########                DOCK_Rotatable_Bonds:                   7
##########                       Formal_Charge:           0.0200001
##########                     HBond_Acceptors:                   8
##########                        HBond_Donors:                   0
##########                         Heavy_Atoms:                  24
##########                          Grid_Score:          -33.618263
##########                     Grid_vdw_energy:          -31.521723
##########                      Grid_es_energy:           -2.096539
##########           Internal_energy_repulsive:           16.799982

@<TRIPOS>MOLECULE
ZINC001058079801
 47 49 1 0 0
SMALL
USER_CHARGES


@<TRIPOS>ATOM
      1 C1        -11.4745   -2.7379   51.8334 C.3     1  ZINC001058079801   -0.1500
      2 C2        -11.6575   -2.8993   53.3439 C.3     1  ZINC001058079801   -0.1200
      3 C3        -12.9236   -3.7126   53.6200 C.3     1  ZINC001058079801   -0.0300
      4 C4        -12.9109   -4.1923   55.0487 C.2     1  ZINC001058079801    0.2900
      5 N5        -13.4729   -5.3170   55.3843 N.2     1  ZINC001058079801   -0.4800
      6 S6        -13.2307   -5.4722   57.0593 S.3     1  ZINC001058079801    0.1900
      7 C7        -12.3714   -3.9867   57.2122 C.2     1  ZINC001058079801    0.2700
      8 N8        -11.8383   -3.4369   58.3640 N.3     1  ZINC001058079801   -0.4300
      9 C9        -12.8757   -2.7610   59.1536 C.3     1  ZINC001058079801    0.0700
     10 C10       -12.2821   -2.2932   60.4843 C.3     1  ZINC001058079801   -0.1300
     11 C11       -11.1185   -1.3363   60.2102 C.3     1  ZINC001058079801    0.1300
     12 N12       -10.5090   -0.9307   61.4792 N.am    1  ZINC001058079801   -0.6100
     13 C13        -9.4587   -1.7538   62.0836 C.3     1  ZINC001058079801    0.0700
     14 C14       -10.9146    0.2000   62.0905 C.2     1  ZINC001058079801    0.5200
     15 O15       -11.7830    0.8824   61.5893 O.2     1  ZINC001058079801   -0.5300
     16 C16       -10.2889    0.6164   63.3967 C.3     1  ZINC001058079801   -0.0600
     17 C17       -10.8279    1.9631   63.8051 C.2     1  ZINC001058079801   -0.1900
     18 C18       -10.9932    3.0641   63.0337 C.2     1  ZINC001058079801   -0.0400
     19 O19       -11.5013    4.0137   63.8318 O.3     1  ZINC001058079801    0.1000
     20 N20       -11.6524    3.6108   64.9618 N.2     1  ZINC001058079801   -0.3600
     21 C21       -11.2838    2.3679   65.0807 C.2     1  ZINC001058079801    0.0000
     22 C22       -10.0747   -2.0490   59.3459 C.3     1  ZINC001058079801   -0.1200
     23 C23       -10.7323   -2.5239   58.0482 C.3     1  ZINC001058079801    0.0400
     24 N24       -12.3277   -3.4915   55.9933 N.2     1  ZINC001058079801   -0.5300
     25 H25       -10.5725   -2.1584   51.6366 H       1  ZINC001058079801    0.0600
     26 H26       -11.3828   -3.7209   51.3715 H       1  ZINC001058079801    0.0600
     27 H27       -12.3377   -2.2195   51.4161 H       1  ZINC001058079801    0.0600
     28 H28       -10.7943   -3.4177   53.7612 H       1  ZINC001058079801    0.0700
     29 H29       -11.7492   -1.9162   53.8057 H       1  ZINC001058079801    0.0700
     30 H30       -13.8008   -3.0870   53.4546 H       1  ZINC001058079801    0.1000
     31 H31       -12.9577   -4.5709   52.9490 H       1  ZINC001058079801    0.0900
     32 H32       -13.2500   -1.8998   58.6001 H       1  ZINC001058079801    0.0600
     33 H33       -13.6953   -3.4536   59.3450 H       1  ZINC001058079801    0.1000
     34 H34       -13.0483   -1.7778   61.0635 H       1  ZINC001058079801    0.0800
     35 H35       -11.9201   -3.1553   61.0444 H       1  ZINC001058079801    0.0800
     36 H36       -11.4874   -0.4553   59.6852 H       1  ZINC001058079801    0.1000
     37 H37        -8.4851   -1.4249   61.7205 H       1  ZINC001058079801    0.0600
     38 H38        -9.4957   -1.6514   63.1681 H       1  ZINC001058079801    0.0800
     39 H39        -9.6140   -2.7980   61.8119 H       1  ZINC001058079801    0.0800
     40 H40       -10.5282   -0.1190   64.1649 H       1  ZINC001058079801    0.1100
     41 H41        -9.2072    0.6788   63.2779 H       1  ZINC001058079801    0.1100
     42 H42       -10.7615    3.1583   61.9832 H       1  ZINC001058079801    0.2200
     43 H43       -11.3139    1.7672   65.9777 H       1  ZINC001058079801    0.1900
     44 H44        -9.2638   -1.3592   59.1117 H       1  ZINC001058079801    0.0900
     45 H45        -9.6779   -2.9073   59.8881 H       1  ZINC001058079801    0.0800
     46 H46        -9.9950   -3.0443   57.4368 H       1  ZINC001058079801    0.1000
     47 H47       -11.1166   -1.6638   57.5000 H       1  ZINC001058079801    0.0700
@<TRIPOS>BOND
     1     1     2    1
     2     1    25    1
     3     1    26    1
     4     1    27    1
     5     2     3    1
     6     2    28    1
     7     2    29    1
     8     3     4    1
     9     3    30    1
    10     3    31    1
    11     4    24    1
    12     4     5    2
    13     5     6    1
    14     6     7    1
    15     7     8    1
    16     7    24    2
    17     8    23    1
    18     8     9    1
    19     9    10    1
    20     9    32    1
    21     9    33    1
    22    10    11    1
    23    10    34    1
    24    10    35    1
    25    11    12    1
    26    11    22    1
    27    11    36    1
    28    12    13    1
    29    12    14   am
    30    13    37    1
    31    13    38    1
    32    13    39    1
    33    14    15    2
    34    14    16    1
    35    16    17    1
    36    16    40    1
    37    16    41    1
    38    17    21    1
    39    17    18    2
    40    18    19    1
    41    18    42    1
    42    19    20    1
    43    20    21    2
    44    21    43    1
    45    22    23    1
    46    22    44    1
    47    22    45    1
    48    23    46    1
    49    23    47    1
@<TRIPOS>SUBSTRUCTURE
     1 ZINC001058079801        1 TEMP              0 ****  ****    0 ROOT


##########                                Name:    ZINC000523153175
##########                DOCK_Rotatable_Bonds:                   9
##########                         Heavy_Atoms:                  30
##########                    Molecular_Weight:             413.603
##########                DOCK_Rotatable_Bonds:                   9
##########                       Formal_Charge:           0.0499987
##########                     HBond_Acceptors:                   5
##########                        HBond_Donors:                   1
##########                         Heavy_Atoms:                  30
##########                          Grid_Score:          -33.611641
##########                     Grid_vdw_energy:          -32.985275
##########                      Grid_es_energy:           -0.626364
##########           Internal_energy_repulsive:           34.258995

@<TRIPOS>MOLECULE
ZINC000523153175
 69 71 1 0 0
SMALL
USER_CHARGES


@<TRIPOS>ATOM
      1 C1         -7.1990    3.1717   51.9616 C.3     1  ZINC000523153175   -0.1500
      2 C2         -8.4668    2.3232   52.0790 C.3     1  ZINC000523153175   -0.0600
      3 C3         -8.1501    0.8770   51.6931 C.3     1  ZINC000523153175   -0.1400
      4 C4         -8.9699    2.3655   53.4989 C.ar    1  ZINC000523153175   -0.0800
      5 C5         -8.0746    2.3172   54.5511 C.ar    1  ZINC000523153175   -0.1100
      6 C6         -8.5361    2.3561   55.8536 C.ar    1  ZINC000523153175   -0.1100
      7 C7         -9.8928    2.4437   56.1039 C.ar    1  ZINC000523153175   -0.0800
      8 C8        -10.3959    2.4855   57.5239 C.3     1  ZINC000523153175   -0.0300
      9 H9         -9.5625    2.3316   58.2092 H       1  ZINC000523153175    0.0800
     10 C10       -11.0367    3.8476   57.7979 C.3     1  ZINC000523153175   -0.1500
     11 C11       -11.4356    1.3821   57.7292 C.3     1  ZINC000523153175   -0.1300
     12 C12       -10.7351    0.0786   58.0138 C.2     1  ZINC000523153175    0.5200
     13 O13        -9.5234    0.0279   58.0106 O.2     1  ZINC000523153175   -0.5300
     14 N14       -11.4552   -1.0311   58.2719 N.am    1  ZINC000523153175   -0.6200
     15 C15       -12.9256   -0.9936   58.2729 C.3     1  ZINC000523153175    0.1100
     16 C16       -13.4419   -2.1208   57.3725 C.3     1  ZINC000523153175    0.0400
     17 N17       -12.8527   -3.3959   57.8027 N.3     1  ZINC000523153175   -0.5100
     18 C18       -13.4521   -4.5241   57.0775 C.3     1  ZINC000523153175    0.0600
     19 H19       -12.8128   -5.4012   57.1777 H       1  ZINC000523153175    0.1100
     20 C20       -14.8328   -4.8299   57.6614 C.3     1  ZINC000523153175   -0.1800
     21 C21       -13.5908   -4.1674   55.6198 C.2     1  ZINC000523153175    0.5200
     22 O22       -14.6889   -3.9642   55.1470 O.2     1  ZINC000523153175   -0.5200
     23 N23       -12.4942   -4.0743   54.8417 N.am    1  ZINC000523153175   -0.7200
     24 C24       -12.6288   -3.7258   53.4251 C.3     1  ZINC000523153175    0.1400
     25 C25       -12.9346   -2.2210   53.2777 C.3     1  ZINC000523153175   -0.1300
     26 C26       -11.5497   -1.5747   53.0263 C.3     1  ZINC000523153175   -0.1300
     27 C27       -10.8445   -2.6178   52.1243 C.3     1  ZINC000523153175   -0.1300
     28 C28       -11.2998   -3.9781   52.6917 C.3     1  ZINC000523153175   -0.1300
     29 C29       -11.3919   -3.3870   57.6481 C.3     1  ZINC000523153175    0.0400
     30 C30       -10.7917   -2.3131   58.5538 C.3     1  ZINC000523153175    0.1200
     31 C31       -10.7879    2.4934   55.0517 C.ar    1  ZINC000523153175   -0.1100
     32 C32       -10.3262    2.4584   53.7492 C.ar    1  ZINC000523153175   -0.1200
     33 H33        -6.8351    3.1411   50.9346 H       1  ZINC000523153175    0.0600
     34 H34        -7.4247    4.2020   52.2366 H       1  ZINC000523153175    0.0600
     35 H35        -6.4341    2.7765   52.6301 H       1  ZINC000523153175    0.0600
     36 H36        -9.2317    2.7184   51.4106 H       1  ZINC000523153175    0.0800
     37 H37        -7.3851    0.4817   52.3615 H       1  ZINC000523153175    0.0600
     38 H38        -9.0532    0.2724   51.7768 H       1  ZINC000523153175    0.0600
     39 H39        -7.7861    0.8463   50.6661 H       1  ZINC000523153175    0.0600
     40 H40        -7.0146    2.2488   54.3556 H       1  ZINC000523153175    0.1200
     41 H41        -7.8367    2.3176   56.6757 H       1  ZINC000523153175    0.1200
     42 H42       -11.4006    3.8778   58.8249 H       1  ZINC000523153175    0.0800
     43 H43       -10.2959    4.6337   57.6515 H       1  ZINC000523153175    0.0600
     44 H44       -11.8701    4.0015   57.1124 H       1  ZINC000523153175    0.0500
     45 H45       -12.0783    1.6405   58.5708 H       1  ZINC000523153175    0.0900
     46 H46       -12.0403    1.2804   56.8280 H       1  ZINC000523153175    0.0900
     47 H47       -13.2947   -1.1379   59.2884 H       1  ZINC000523153175    0.0800
     48 H48       -13.2676   -0.0325   57.8891 H       1  ZINC000523153175    0.0900
     49 H49       -14.5278   -2.1781   57.4478 H       1  ZINC000523153175    0.0900
     50 H50       -13.1587   -1.9197   56.3393 H       1  ZINC000523153175    0.0400
     51 H51       -15.4721   -3.9527   57.5611 H       1  ZINC000523153175    0.0700
     52 H52       -15.2775   -5.6670   57.1232 H       1  ZINC000523153175    0.0700
     53 H53       -14.7325   -5.0878   58.7157 H       1  ZINC000523153175    0.0700
     54 H54       -11.6160   -4.2380   55.2197 H       1  ZINC000523153175    0.4000
     55 H55       -13.4243   -4.3156   52.9697 H       1  ZINC000523153175    0.0900
     56 H56       -13.5963   -2.0475   52.4292 H       1  ZINC000523153175    0.0700
     57 H57       -13.3773   -1.8302   54.1941 H       1  ZINC000523153175    0.0700
     58 H58       -11.6563   -0.6230   52.5058 H       1  ZINC000523153175    0.0700
     59 H59       -11.0080   -1.4452   53.9634 H       1  ZINC000523153175    0.0700
     60 H60       -11.1685   -2.5084   51.0894 H       1  ZINC000523153175    0.0700
     61 H61        -9.7617   -2.5166   52.1987 H       1  ZINC000523153175    0.0700
     62 H62       -10.5547   -4.3598   53.3897 H       1  ZINC000523153175    0.0700
     63 H63       -11.4506   -4.6897   51.8799 H       1  ZINC000523153175    0.0800
     64 H64       -10.9912   -4.3626   57.9233 H       1  ZINC000523153175    0.1000
     65 H65       -11.1374   -3.1682   56.6110 H       1  ZINC000523153175    0.0400
     66 H66        -9.7229   -2.2247   58.3585 H       1  ZINC000523153175    0.1000
     67 H67       -10.9549   -2.5813   59.5977 H       1  ZINC000523153175    0.0800
     68 H68       -11.8479    2.5622   55.2473 H       1  ZINC000523153175    0.1200
     69 H69       -11.0256    2.4973   52.9272 H       1  ZINC000523153175    0.1200
@<TRIPOS>BOND
     1     1     2    1
     2     1    33    1
     3     1    34    1
     4     1    35    1
     5     2     3    1
     6     2     4    1
     7     2    36    1
     8     3    37    1
     9     3    38    1
    10     3    39    1
    11     4    32   ar
    12     4     5   ar
    13     5     6   ar
    14     5    40    1
    15     6     7   ar
    16     6    41    1
    17     7     8    1
    18     7    31   ar
    19     8     9    1
    20     8    10    1
    21     8    11    1
    22    10    42    1
    23    10    43    1
    24    10    44    1
    25    11    12    1
    26    11    45    1
    27    11    46    1
    28    12    13    2
    29    12    14   am
    30    14    30    1
    31    14    15    1
    32    15    16    1
    33    15    47    1
    34    15    48    1
    35    16    17    1
    36    16    49    1
    37    16    50    1
    38    17    18    1
    39    17    29    1
    40    18    19    1
    41    18    20    1
    42    18    21    1
    43    20    51    1
    44    20    52    1
    45    20    53    1
    46    21    22    2
    47    21    23   am
    48    23    24    1
    49    23    54    1
    50    24    28    1
    51    24    25    1
    52    24    55    1
    53    25    26    1
    54    25    56    1
    55    25    57    1
    56    26    27    1
    57    26    58    1
    58    26    59    1
    59    27    28    1
    60    27    60    1
    61    27    61    1
    62    28    62    1
    63    28    63    1
    64    29    30    1
    65    29    64    1
    66    29    65    1
    67    30    66    1
    68    30    67    1
    69    31    32   ar
    70    31    68    1
    71    32    69    1
@<TRIPOS>SUBSTRUCTURE
     1 ZINC000523153175        1 TEMP              0 ****  ****    0 ROOT


##########                                Name:    ZINC000129637895
##########                DOCK_Rotatable_Bonds:                   7
##########                         Heavy_Atoms:                  26
##########                    Molecular_Weight:             374.464
##########                DOCK_Rotatable_Bonds:                   7
##########                       Formal_Charge:        -5.51343e-07
##########                     HBond_Acceptors:                   8
##########                        HBond_Donors:                   1
##########                         Heavy_Atoms:                  26
##########                          Grid_Score:          -33.604252
##########                     Grid_vdw_energy:          -33.218212
##########                      Grid_es_energy:           -0.386040
##########           Internal_energy_repulsive:           12.151320

@<TRIPOS>MOLECULE
ZINC000129637895
 48 50 1 0 0
SMALL
USER_CHARGES


@<TRIPOS>ATOM
      1 C1         -4.2897    3.3143   53.6514 C.3     1  ZINC000129637895   -0.1500
      2 C2         -5.7090    3.3203   53.0799 C.3     1  ZINC000129637895   -0.0500
      3 C3         -5.8050    2.3130   51.9632 C.2     1  ZINC000129637895    0.0300
      4 C4         -6.9555    1.7014   51.6290 C.2     1  ZINC000129637895   -0.0200
      5 N5         -8.1947    1.8940   52.2381 N.am    1  ZINC000129637895   -0.5900
      6 C6         -8.8777    0.8388   52.7248 C.2     1  ZINC000129637895    0.5000
      7 O7         -8.4130   -0.2792   52.6340 O.2     1  ZINC000129637895   -0.4800
      8 C8        -10.2052    1.0449   53.3752 C.2     1  ZINC000129637895    0.5200
      9 O9        -11.2227    0.9543   52.7198 O.2     1  ZINC000129637895   -0.5100
     10 N10       -10.2740    1.3314   54.6904 N.am    1  ZINC000129637895   -0.5800
     11 C11       -11.5720    1.5321   55.3523 C.3     1  ZINC000129637895    0.0800
     12 C12       -11.6245    0.6442   56.6001 C.3     1  ZINC000129637895    0.0400
     13 N13       -10.4503    0.9155   57.4401 N.3     1  ZINC000129637895   -0.4900
     14 C14       -10.5442    0.2468   58.6627 C.ar    1  ZINC000129637895    0.1500
     15 C15       -10.6937    0.9683   59.8406 C.ar    1  ZINC000129637895   -0.2100
     16 C16       -10.7869    0.3065   61.0497 C.ar    1  ZINC000129637895   -0.0500
     17 C17       -10.7315   -1.0736   61.0911 C.ar    1  ZINC000129637895   -0.2300
     18 C18       -10.5822   -1.7997   59.9175 C.ar    1  ZINC000129637895    0.1500
     19 O19       -10.5283   -3.1570   59.9600 O.3     1  ZINC000129637895   -0.3200
     20 C20        -9.2433   -3.7606   59.7973 C.3     1  ZINC000129637895    0.0300
     21 C21       -10.4939   -1.1401   58.7021 C.ar    1  ZINC000129637895   -0.1700
     22 C22        -9.2048    0.5670   56.7436 C.3     1  ZINC000129637895    0.0400
     23 C23        -9.0534    1.4457   55.5030 C.3     1  ZINC000129637895    0.1100
     24 S24        -6.6181    0.6142   50.2840 S.3     1  ZINC000129637895    0.2400
     25 C25        -4.9749    1.0852   50.3025 C.2     1  ZINC000129637895   -0.0300
     26 N26        -4.7701    1.9606   51.2273 N.2     1  ZINC000129637895   -0.4500
     27 H27        -4.0573    2.3215   54.0367 H       1  ZINC000129637895    0.0600
     28 H28        -3.5805    3.5744   52.8657 H       1  ZINC000129637895    0.0500
     29 H29        -4.2203    4.0430   54.4592 H       1  ZINC000129637895    0.0700
     30 H30        -6.4182    3.0604   53.8657 H       1  ZINC000129637895    0.0900
     31 H31        -5.9414    4.3131   52.6947 H       1  ZINC000129637895    0.0700
     32 H32        -8.5654    2.7873   52.3117 H       1  ZINC000129637895    0.4300
     33 H33       -11.6774    2.5775   55.6421 H       1  ZINC000129637895    0.0900
     34 H34       -12.3770    1.2550   54.6716 H       1  ZINC000129637895    0.1400
     35 H35       -12.5324    0.8612   57.1629 H       1  ZINC000129637895    0.1000
     36 H36       -11.6234   -0.4040   56.3010 H       1  ZINC000129637895    0.0500
     37 H37       -10.7366    2.0469   59.8110 H       1  ZINC000129637895    0.1300
     38 H38       -10.9032    0.8688   61.9643 H       1  ZINC000129637895    0.1300
     39 H39       -10.8039   -1.5880   62.0380 H       1  ZINC000129637895    0.1300
     40 H40        -8.8308   -3.4813   58.8279 H       1  ZINC000129637895    0.0600
     41 H41        -8.5774   -3.4161   60.5885 H       1  ZINC000129637895    0.0600
     42 H42        -9.3418   -4.8448   59.8517 H       1  ZINC000129637895    0.1000
     43 H43       -10.3781   -1.7034   57.7879 H       1  ZINC000129637895    0.1300
     44 H44        -8.3579    0.7278   57.4106 H       1  ZINC000129637895    0.1000
     45 H45        -9.2373   -0.4802   56.4425 H       1  ZINC000129637895    0.0500
     46 H46        -8.1926    1.1141   54.9223 H       1  ZINC000129637895    0.1100
     47 H47        -8.9172    2.4843   55.8043 H       1  ZINC000129637895    0.0900
     48 H48        -4.2171    0.7069   49.6325 H       1  ZINC000129637895    0.2000
@<TRIPOS>BOND
     1     1     2    1
     2     1    27    1
     3     1    28    1
     4     1    29    1
     5     2     3    1
     6     2    30    1
     7     2    31    1
     8     3    26    1
     9     3     4    2
    10     4     5    1
    11     4    24    1
    12     5     6   am
    13     5    32    1
    14     6     7    2
    15     6     8    1
    16     8     9    2
    17     8    10   am
    18    10    23    1
    19    10    11    1
    20    11    12    1
    21    11    33    1
    22    11    34    1
    23    12    13    1
    24    12    35    1
    25    12    36    1
    26    13    14    1
    27    13    22    1
    28    14    21   ar
    29    14    15   ar
    30    15    16   ar
    31    15    37    1
    32    16    17   ar
    33    16    38    1
    34    17    18   ar
    35    17    39    1
    36    18    19    1
    37    18    21   ar
    38    19    20    1
    39    20    40    1
    40    20    41    1
    41    20    42    1
    42    21    43    1
    43    22    23    1
    44    22    44    1
    45    22    45    1
    46    23    46    1
    47    23    47    1
    48    24    25    1
    49    25    26    2
    50    25    48    1
@<TRIPOS>SUBSTRUCTURE
     1 ZINC000129637895        1 TEMP              0 ****  ****    0 ROOT


##########                                Name:    ZINC000265786263
##########                DOCK_Rotatable_Bonds:                   7
##########                         Heavy_Atoms:                  28
##########                    Molecular_Weight:             386.451
##########                DOCK_Rotatable_Bonds:                   7
##########                       Formal_Charge:           0.0499992
##########                     HBond_Acceptors:                   8
##########                        HBond_Donors:                   2
##########                         Heavy_Atoms:                  28
##########                          Grid_Score:          -33.600704
##########                     Grid_vdw_energy:          -29.912815
##########                      Grid_es_energy:           -3.687888
##########           Internal_energy_repulsive:           21.299156

@<TRIPOS>MOLECULE
ZINC000265786263
 54 57 1 0 0
SMALL
USER_CHARGES


@<TRIPOS>ATOM
      1 C1        -13.0314   -2.0054   61.0317 C.3     1  ZINC000265786263   -0.1500
      2 C2        -12.1513   -1.9097   59.7838 C.3     1  ZINC000265786263    0.1600
      3 C3        -11.4608   -0.5459   59.7175 C.3     1  ZINC000265786263   -0.1600
      4 C4        -10.1091   -0.4037   60.4198 C.3     1  ZINC000265786263   -0.1600
      5 C5        -10.1768   -0.4437   58.8919 C.3     1  ZINC000265786263   -0.1600
      6 N6        -11.1590   -2.9981   59.7648 N.am    1  ZINC000265786263   -0.7100
      7 C7        -11.4075   -3.7262   58.6611 C.2     1  ZINC000265786263    0.7100
      8 O8        -10.7663   -4.7076   58.3405 O.2     1  ZINC000265786263   -0.5400
      9 N9        -12.4394   -3.2489   57.9557 N.am    1  ZINC000265786263   -0.5600
     10 C10       -12.9305   -3.8442   56.7104 C.3     1  ZINC000265786263    0.1000
     11 C11       -12.4516   -3.0255   55.5393 C.2     1  ZINC000265786263    0.5100
     12 O12       -11.5575   -2.2198   55.6878 O.2     1  ZINC000265786263   -0.5300
     13 N13       -13.0170   -3.1889   54.3268 N.am    1  ZINC000265786263   -0.6100
     14 C14       -14.1080   -4.1548   54.1265 C.3     1  ZINC000265786263    0.1100
     15 C15       -15.2679   -3.4406   53.4246 C.3     1  ZINC000265786263    0.0400
     16 N16       -14.7737   -2.7988   52.1991 N.3     1  ZINC000265786263   -0.5300
     17 C17       -15.8832   -2.2495   51.4084 C.3     1  ZINC000265786263    0.0900
     18 C18       -15.3453   -1.6595   50.1302 C.ar    1  ZINC000265786263   -0.0600
     19 C19       -15.2616   -2.4389   48.9915 C.ar    1  ZINC000265786263   -0.1300
     20 C20       -14.7684   -1.9004   47.8171 C.ar    1  ZINC000265786263   -0.1000
     21 C21       -14.3583   -0.5820   47.7791 C.ar    1  ZINC000265786263   -0.1400
     22 C22       -14.4414    0.2022   48.9208 C.ar    1  ZINC000265786263    0.1100
     23 O23       -14.0388    1.4997   48.8859 O.3     1  ZINC000265786263   -0.5000
     24 C24       -14.9416   -0.3386   50.0961 C.ar    1  ZINC000265786263   -0.1200
     25 C25       -13.7805   -1.7606   52.5046 C.3     1  ZINC000265786263    0.0400
     26 C26       -12.5638   -2.4015   53.1702 C.3     1  ZINC000265786263    0.1200
     27 C27       -12.9717   -2.1535   58.5327 C.2     1  ZINC000265786263    0.5400
     28 O28       -13.9117   -1.4996   58.1344 O.2     1  ZINC000265786263   -0.4500
     29 H29       -13.4846   -2.9955   61.0817 H       1  ZINC000265786263    0.0700
     30 H30       -12.4217   -1.8397   61.9198 H       1  ZINC000265786263    0.0800
     31 H31       -13.8150   -1.2493   60.9827 H       1  ZINC000265786263    0.0900
     32 H32       -12.1252    0.3181   59.7239 H       1  ZINC000265786263    0.1100
     33 H33        -9.8839    0.5543   60.8886 H       1  ZINC000265786263    0.1000
     34 H34        -9.7116   -1.2815   60.9292 H       1  ZINC000265786263    0.1100
     35 H35        -9.8239   -1.3479   58.3960 H       1  ZINC000265786263    0.1000
     36 H36        -9.9962    0.4879   58.3555 H       1  ZINC000265786263    0.1000
     37 H37       -10.4619   -3.1584   60.4199 H       1  ZINC000265786263    0.4400
     38 H38       -12.5523   -4.8626   56.6207 H       1  ZINC000265786263    0.1300
     39 H39       -14.0203   -3.8609   56.7207 H       1  ZINC000265786263    0.1300
     40 H40       -13.7572   -4.9799   53.5067 H       1  ZINC000265786263    0.0900
     41 H41       -14.4424   -4.5348   55.0919 H       1  ZINC000265786263    0.0900
     42 H42       -16.0404   -4.1659   53.1693 H       1  ZINC000265786263    0.0900
     43 H43       -15.6844   -2.6836   54.0891 H       1  ZINC000265786263    0.0400
     44 H44       -16.5898   -3.0452   51.1722 H       1  ZINC000265786263    0.0900
     45 H45       -16.3890   -1.4731   51.9823 H       1  ZINC000265786263    0.0500
     46 H46       -15.5815   -3.4700   49.0192 H       1  ZINC000265786263    0.1200
     47 H47       -14.7038   -2.5114   46.9289 H       1  ZINC000265786263    0.1300
     48 H48       -13.9729   -0.1622   46.8617 H       1  ZINC000265786263    0.1300
     49 H49       -13.7090    1.7861   48.0231 H       1  ZINC000265786263    0.3900
     50 H50       -15.0072    0.2698   50.9860 H       1  ZINC000265786263    0.1300
     51 H51       -13.4744   -1.2673   51.5821 H       1  ZINC000265786263    0.1000
     52 H52       -14.2178   -1.0270   53.1819 H       1  ZINC000265786263    0.0400
     53 H53       -11.8756   -1.6239   53.5017 H       1  ZINC000265786263    0.1000
     54 H54       -12.0625   -3.0597   52.4605 H       1  ZINC000265786263    0.0800
@<TRIPOS>BOND
     1     1     2    1
     2     1    29    1
     3     1    30    1
     4     1    31    1
     5     2    27    1
     6     2     3    1
     7     2     6    1
     8     3     5    1
     9     3     4    1
    10     3    32    1
    11     4     5    1
    12     4    33    1
    13     4    34    1
    14     5    35    1
    15     5    36    1
    16     6     7   am
    17     6    37    1
    18     7     8    2
    19     7     9   am
    20     9    10    1
    21     9    27   am
    22    10    11    1
    23    10    38    1
    24    10    39    1
    25    11    12    2
    26    11    13   am
    27    13    26    1
    28    13    14    1
    29    14    15    1
    30    14    40    1
    31    14    41    1
    32    15    16    1
    33    15    42    1
    34    15    43    1
    35    16    17    1
    36    16    25    1
    37    17    18    1
    38    17    44    1
    39    17    45    1
    40    18    24   ar
    41    18    19   ar
    42    19    20   ar
    43    19    46    1
    44    20    21   ar
    45    20    47    1
    46    21    22   ar
    47    21    48    1
    48    22    23    1
    49    22    24   ar
    50    23    49    1
    51    24    50    1
    52    25    26    1
    53    25    51    1
    54    25    52    1
    55    26    53    1
    56    26    54    1
    57    27    28    2
@<TRIPOS>SUBSTRUCTURE
     1 ZINC000265786263        1 TEMP              0 ****  ****    0 ROOT


##########                                Name:    ZINC000995593866
##########                DOCK_Rotatable_Bonds:                   7
##########                         Heavy_Atoms:                  24
##########                    Molecular_Weight:             342.389
##########                DOCK_Rotatable_Bonds:                   7
##########                       Formal_Charge:                0.03
##########                     HBond_Acceptors:                   8
##########                        HBond_Donors:                   1
##########                         Heavy_Atoms:                  24
##########                          Grid_Score:          -33.583321
##########                     Grid_vdw_energy:          -32.918274
##########                      Grid_es_energy:           -0.665047
##########           Internal_energy_repulsive:            9.642745

@<TRIPOS>MOLECULE
ZINC000995593866
 48 50 1 0 0
SMALL
USER_CHARGES


@<TRIPOS>ATOM
      1 C1        -10.3007   -0.3646   57.0683 C.3     1  ZINC000995593866   -0.1400
      2 C2        -11.2498   -0.8238   58.1772 C.3     1  ZINC000995593866   -0.0800
      3 C3        -11.8698    0.3857   58.8798 C.3     1  ZINC000995593866   -0.1400
      4 C4        -12.3534   -1.7338   57.5963 C.3     1  ZINC000995593866    0.1200
      5 N5        -11.8476   -3.1113   57.8000 N.am    1  ZINC000995593866   -0.6300
      6 C6        -11.9424   -4.1597   56.9584 C.2     1  ZINC000995593866    0.5400
      7 O7        -11.4724   -5.2330   57.2714 O.2     1  ZINC000995593866   -0.5300
      8 C8        -12.6324   -3.9982   55.6284 C.3     1  ZINC000995593866   -0.1300
      9 C9        -11.5925   -3.6952   54.5478 C.3     1  ZINC000995593866   -0.1000
     10 C10       -11.9228   -4.3208   53.1823 C.3     1  ZINC000995593866   -0.1300
     11 C11       -11.4222   -3.0117   52.5496 C.3     1  ZINC000995593866   -0.1400
     12 C12       -11.7823   -2.3244   53.8773 C.3     1  ZINC000995593866   -0.1400
     13 C13       -11.2141   -3.0749   59.1387 C.3     1  ZINC000995593866    0.1100
     14 C14       -10.4985   -1.7080   59.1941 C.3     1  ZINC000995593866    0.0800
     15 H15        -9.4535   -1.8153   58.9038 H       1  ZINC000995593866    0.0700
     16 N16       -10.5965   -1.1346   60.5430 N.3     1  ZINC000995593866   -0.6800
     17 C17        -9.5018   -1.6117   61.3986 C.3     1  ZINC000995593866    0.1500
     18 C18        -9.4917   -0.8276   62.6855 C.2     1  ZINC000995593866    0.1900
     19 N19       -10.0046    0.3638   62.8781 N.2     1  ZINC000995593866   -0.4300
     20 C20        -9.7599    0.6593   64.1672 C.2     1  ZINC000995593866    0.0900
     21 C21       -10.1531    1.9264   64.8819 C.3     1  ZINC000995593866    0.3800
     22 F22       -11.4776    1.8226   65.3202 F       1  ZINC000995593866   -0.1800
     23 F23        -9.3116    2.1214   65.9824 F       1  ZINC000995593866   -0.1700
     24 N24        -9.1225   -0.3487   64.6831 N.2     1  ZINC000995593866   -0.3400
     25 O25        -8.9636   -1.2159   63.8501 O.3     1  ZINC000995593866    0.1000
     26 H26        -9.8968   -1.2356   56.5521 H       1  ZINC000995593866    0.0600
     27 H27       -10.8453    0.2582   56.3588 H       1  ZINC000995593866    0.0600
     28 H28        -9.4838    0.2104   57.5043 H       1  ZINC000995593866    0.0600
     29 H29       -12.4182    0.9860   58.1539 H       1  ZINC000995593866    0.0700
     30 H30       -12.5521    0.0435   59.6579 H       1  ZINC000995593866    0.0700
     31 H31       -11.0806    0.9893   59.3283 H       1  ZINC000995593866    0.0600
     32 H32       -13.2890   -1.5887   58.1364 H       1  ZINC000995593866    0.0800
     33 H33       -12.4916   -1.5329   56.5340 H       1  ZINC000995593866    0.0900
     34 H34       -13.1588   -4.9193   55.3780 H       1  ZINC000995593866    0.0900
     35 H35       -13.3459   -3.1763   55.6866 H       1  ZINC000995593866    0.0900
     36 H36       -10.5710   -3.8815   54.8793 H       1  ZINC000995593866    0.1000
     37 H37       -11.3073   -5.1868   52.9386 H       1  ZINC000995593866    0.0700
     38 H38       -12.9871   -4.5003   53.0303 H       1  ZINC000995593866    0.0800
     39 H39       -10.3539   -3.0116   52.3336 H       1  ZINC000995593866    0.0800
     40 H40       -12.0256   -2.6756   51.7064 H       1  ZINC000995593866    0.0700
     41 H41       -12.8081   -1.9580   53.9152 H       1  ZINC000995593866    0.0800
     42 H42       -11.0534   -1.5785   54.1946 H       1  ZINC000995593866    0.0700
     43 H43       -11.9718   -3.1393   59.9196 H       1  ZINC000995593866    0.0900
     44 H44       -10.4928   -3.8859   59.2399 H       1  ZINC000995593866    0.0800
     45 H45       -10.6143   -0.1265   60.5070 H       1  ZINC000995593866    0.3600
     46 H46        -9.6470   -2.6693   61.6187 H       1  ZINC000995593866    0.1200
     47 H47        -8.5515   -1.4751   60.8825 H       1  ZINC000995593866    0.0800
     48 H48       -10.0612    2.7717   64.2000 H       1  ZINC000995593866    0.1500
@<TRIPOS>BOND
     1     1     2    1
     2     1    26    1
     3     1    27    1
     4     1    28    1
     5     2    14    1
     6     2     3    1
     7     2     4    1
     8     3    29    1
     9     3    30    1
    10     3    31    1
    11     4     5    1
    12     4    32    1
    13     4    33    1
    14     5     6   am
    15     5    13    1
    16     6     7    2
    17     6     8    1
    18     8     9    1
    19     8    34    1
    20     8    35    1
    21     9    12    1
    22     9    10    1
    23     9    36    1
    24    10    11    1
    25    10    37    1
    26    10    38    1
    27    11    12    1
    28    11    39    1
    29    11    40    1
    30    12    41    1
    31    12    42    1
    32    13    14    1
    33    13    43    1
    34    13    44    1
    35    14    15    1
    36    14    16    1
    37    16    17    1
    38    16    45    1
    39    17    18    1
    40    17    46    1
    41    17    47    1
    42    18    25    1
    43    18    19    2
    44    19    20    1
    45    20    21    1
    46    20    24    2
    47    21    22    1
    48    21    23    1
    49    21    48    1
    50    24    25    1
@<TRIPOS>SUBSTRUCTURE
     1 ZINC000995593866        1 TEMP              0 ****  ****    0 ROOT


##########                                Name:    ZINC000425987417
##########                DOCK_Rotatable_Bonds:                   9
##########                         Heavy_Atoms:                  25
##########                    Molecular_Weight:             357.419
##########                DOCK_Rotatable_Bonds:                   9
##########                       Formal_Charge:         -0.00999992
##########                     HBond_Acceptors:                   7
##########                        HBond_Donors:                   1
##########                         Heavy_Atoms:                  25
##########                          Grid_Score:          -33.569561
##########                     Grid_vdw_energy:          -32.642418
##########                      Grid_es_energy:           -0.927144
##########           Internal_energy_repulsive:           12.961718

@<TRIPOS>MOLECULE
ZINC000425987417
 51 52 1 0 0
SMALL
USER_CHARGES


@<TRIPOS>ATOM
      1 C1        -15.1954   -1.5770   56.5580 C.3     1  ZINC000425987417   -0.1500
      2 C2        -15.6591   -2.8774   55.8986 C.3     1  ZINC000425987417    0.0400
      3 N3        -14.4930   -3.7227   55.6093 N.3     1  ZINC000425987417   -0.5300
      4 C4        -14.2613   -4.6883   56.6918 C.3     1  ZINC000425987417    0.0400
      5 C5        -12.7605   -4.9541   56.8256 C.3     1  ZINC000425987417    0.1400
      6 N6        -12.1203   -3.8155   57.4890 N.am    1  ZINC000425987417   -0.7500
      7 C7        -10.9991   -4.0011   58.2137 C.2     1  ZINC000425987417    0.7200
      8 O8        -10.5191   -5.1134   58.3166 O.2     1  ZINC000425987417   -0.5800
      9 N9        -10.4101   -2.9538   58.8240 N.am    1  ZINC000425987417   -0.6200
     10 C10        -9.1849   -3.1230   59.6226 C.3     1  ZINC000425987417    0.1300
     11 C11        -9.5168   -2.7717   61.0721 C.3     1  ZINC000425987417   -0.1000
     12 C12       -10.2763   -1.4735   61.1486 C.ar    1  ZINC000425987417   -0.0600
     13 C13       -10.2830   -0.8017   62.3647 C.ar    1  ZINC000425987417   -0.1200
     14 C14       -10.9673    0.3878   62.5056 C.ar    1  ZINC000425987417   -0.1100
     15 C15       -11.6544    0.9174   61.4295 C.ar    1  ZINC000425987417   -0.1200
     16 C16       -11.6466    0.2540   60.2194 C.ar    1  ZINC000425987417   -0.1100
     17 C17       -10.9538   -0.9399   60.0748 C.ar    1  ZINC000425987417   -0.0900
     18 C18       -10.9607   -1.5986   58.7141 C.3     1  ZINC000425987417    0.1800
     19 H19       -11.9839   -1.6519   58.3421 H       1  ZINC000425987417    0.0900
     20 C20       -10.1092   -0.7753   57.7456 C.3     1  ZINC000425987417   -0.1600
     21 C21       -14.6455   -4.4060   54.3179 C.3     1  ZINC000425987417    0.0500
     22 C22       -14.1422   -3.4951   53.1963 C.3     1  ZINC000425987417   -0.1600
     23 C23       -12.6232   -3.6294   53.0730 C.3     1  ZINC000425987417    0.4500
     24 F24       -12.0084   -2.9716   54.1439 F       1  ZINC000425987417   -0.1800
     25 F25       -12.2713   -4.9832   53.0934 F       1  ZINC000425987417   -0.1800
     26 F26       -12.2005   -3.0558   51.8691 F       1  ZINC000425987417   -0.1900
     27 H27       -14.5580   -1.0262   55.8663 H       1  ZINC000425987417    0.0500
     28 H28       -16.0637   -0.9698   56.8140 H       1  ZINC000425987417    0.0600
     29 H29       -14.6344   -1.8086   57.4633 H       1  ZINC000425987417    0.0700
     30 H30       -16.3330   -3.4063   56.5725 H       1  ZINC000425987417    0.0800
     31 H31       -16.1808   -2.6477   54.9694 H       1  ZINC000425987417    0.0400
     32 H32       -14.6434   -4.2825   57.6285 H       1  ZINC000425987417    0.0500
     33 H33       -14.7766   -5.6212   56.4630 H       1  ZINC000425987417    0.0800
     34 H34       -12.6026   -5.8555   57.4176 H       1  ZINC000425987417    0.0800
     35 H35       -12.3257   -5.0889   55.8352 H       1  ZINC000425987417    0.0700
     36 H36       -12.5033   -2.9282   57.4068 H       1  ZINC000425987417    0.3900
     37 H37        -8.8453   -4.1570   59.5623 H       1  ZINC000425987417    0.1000
     38 H38        -8.4071   -2.4563   59.2504 H       1  ZINC000425987417    0.0700
     39 H39       -10.1231   -3.5678   61.5041 H       1  ZINC000425987417    0.0800
     40 H40        -8.5908   -2.6793   61.6396 H       1  ZINC000425987417    0.0900
     41 H41        -9.7482   -1.2145   63.2072 H       1  ZINC000425987417    0.1200
     42 H42       -10.9665    0.9037   63.4544 H       1  ZINC000425987417    0.1200
     43 H43       -12.1953    1.8461   61.5353 H       1  ZINC000425987417    0.1200
     44 H44       -12.1839    0.6669   59.3785 H       1  ZINC000425987417    0.1200
     45 H45        -9.0862   -0.7203   58.1177 H       1  ZINC000425987417    0.0700
     46 H46       -10.1138   -1.2497   56.7642 H       1  ZINC000425987417    0.0600
     47 H47       -10.5209    0.2307   57.6648 H       1  ZINC000425987417    0.0700
     48 H48       -14.0653   -5.3288   54.3243 H       1  ZINC000425987417    0.0500
     49 H49       -15.6972   -4.6393   54.1522 H       1  ZINC000425987417    0.0900
     50 H50       -14.6101   -3.7849   52.2554 H       1  ZINC000425987417    0.1200
     51 H51       -14.3982   -2.4608   53.4259 H       1  ZINC000425987417    0.1100
@<TRIPOS>BOND
     1     1     2    1
     2     1    27    1
     3     1    28    1
     4     1    29    1
     5     2     3    1
     6     2    30    1
     7     2    31    1
     8     3     4    1
     9     3    21    1
    10     4     5    1
    11     4    32    1
    12     4    33    1
    13     5     6    1
    14     5    34    1
    15     5    35    1
    16     6     7   am
    17     6    36    1
    18     7     8    2
    19     7     9   am
    20     9    18    1
    21     9    10    1
    22    10    11    1
    23    10    37    1
    24    10    38    1
    25    11    12    1
    26    11    39    1
    27    11    40    1
    28    12    17   ar
    29    12    13   ar
    30    13    14   ar
    31    13    41    1
    32    14    15   ar
    33    14    42    1
    34    15    16   ar
    35    15    43    1
    36    16    17   ar
    37    16    44    1
    38    17    18    1
    39    18    19    1
    40    18    20    1
    41    20    45    1
    42    20    46    1
    43    20    47    1
    44    21    22    1
    45    21    48    1
    46    21    49    1
    47    22    23    1
    48    22    50    1
    49    22    51    1
    50    23    24    1
    51    23    25    1
    52    23    26    1
@<TRIPOS>SUBSTRUCTURE
     1 ZINC000425987417        1 TEMP              0 ****  ****    0 ROOT


##########                                Name:    ZINC000915315870
##########                DOCK_Rotatable_Bonds:                   4
##########                         Heavy_Atoms:                  24
##########                    Molecular_Weight:             357.381
##########                DOCK_Rotatable_Bonds:                   4
##########                       Formal_Charge:           0.0300002
##########                     HBond_Acceptors:                   9
##########                        HBond_Donors:                   1
##########                         Heavy_Atoms:                  24
##########                          Grid_Score:          -33.568176
##########                     Grid_vdw_energy:          -32.264591
##########                      Grid_es_energy:           -1.303584
##########           Internal_energy_repulsive:           35.163395

@<TRIPOS>MOLECULE
ZINC000915315870
 41 43 1 0 0
SMALL
USER_CHARGES


@<TRIPOS>ATOM
      1 C1        -14.2860   -4.6717   54.4859 C.3     1  ZINC000915315870    0.0300
      2 O2        -13.5623   -3.4545   54.6778 O.3     1  ZINC000915315870   -0.3200
      3 C3        -12.7043   -3.4061   55.7321 C.ar    1  ZINC000915315870    0.0800
      4 C4        -12.5495   -4.5139   56.5545 C.ar    1  ZINC000915315870    0.0900
      5 F5        -13.2506   -5.6422   56.3082 F       1  ZINC000915315870   -0.1100
      6 C6        -11.6757   -4.4614   57.6262 C.ar    1  ZINC000915315870   -0.0500
      7 C7        -10.9579   -3.3072   57.8789 C.ar    1  ZINC000915315870   -0.6300
      8 S8         -9.8468   -3.2442   59.2450 S.o2    1  ZINC000915315870    2.7000
      9 O9         -9.3358   -4.5602   59.4076 O.2     1  ZINC000915315870   -0.9400
     10 O10        -9.0181   -2.1089   59.0361 O.2     1  ZINC000915315870   -0.9400
     11 N11       -10.7489   -2.9225   60.5959 N.am    1  ZINC000915315870   -1.1100
     12 C12       -11.5340   -1.6883   60.6757 C.3     1  ZINC000915315870    0.2400
     13 H13       -11.3337   -1.0680   59.8022 H       1  ZINC000915315870    0.0900
     14 C14       -13.0285   -2.0286   60.7370 C.3     1  ZINC000915315870   -0.1400
     15 C15       -13.8320   -0.7680   61.0637 C.3     1  ZINC000915315870   -0.1100
     16 C16       -13.6041   -0.3730   62.5281 C.3     1  ZINC000915315870   -0.0400
     17 C17       -12.1164   -0.3354   62.7803 C.2     1  ZINC000915315870    0.0900
     18 N18       -11.4799    0.2239   63.7679 N.2     1  ZINC000915315870   -0.2900
     19 N19       -10.1065    0.0040   63.5826 N.pl3   1  ZINC000915315870   -0.3800
     20 C20        -9.0334    0.4659   64.4665 C.3     1  ZINC000915315870    0.1000
     21 C21        -9.9477   -0.7097   62.4453 C.2     1  ZINC000915315870    0.0800
     22 C22       -11.1700   -0.9336   61.9305 C.2     1  ZINC000915315870   -0.2500
     23 C23       -11.1095   -2.2025   57.0616 C.ar    1  ZINC000915315870   -0.0500
     24 C24       -11.9773   -2.2505   55.9848 C.ar    1  ZINC000915315870    0.1000
     25 F25       -12.1250   -1.1707   55.1865 F       1  ZINC000915315870   -0.1100
     26 H26       -14.9324   -4.5763   53.6134 H       1  ZINC000915315870    0.1100
     27 H27       -13.5841   -5.4909   54.3301 H       1  ZINC000915315870    0.0600
     28 H28       -14.8934   -4.8762   55.3675 H       1  ZINC000915315870    0.0500
     29 H29       -11.5549   -5.3229   58.2663 H       1  ZINC000915315870    0.1700
     30 H30       -10.7574   -3.5513   61.3345 H       1  ZINC000915315870    0.4200
     31 H31       -13.3501   -2.4242   59.7736 H       1  ZINC000915315870    0.0900
     32 H32       -13.1983   -2.7776   61.5106 H       1  ZINC000915315870    0.0800
     33 H33       -13.5095    0.0459   60.4143 H       1  ZINC000915315870    0.0700
     34 H34       -14.8923   -0.9618   60.9014 H       1  ZINC000915315870    0.0800
     35 H35       -14.0338    0.6111   62.7146 H       1  ZINC000915315870    0.0800
     36 H36       -14.0698   -1.1086   63.1840 H       1  ZINC000915315870    0.0900
     37 H37        -8.8348   -0.2924   65.2237 H       1  ZINC000915315870    0.0800
     38 H38        -8.1305    0.6402   63.8812 H       1  ZINC000915315870    0.0900
     39 H39        -9.3366    1.3935   64.9519 H       1  ZINC000915315870    0.0900
     40 H40        -9.0090   -1.0403   62.0258 H       1  ZINC000915315870    0.1700
     41 H41       -10.5471   -1.3025   57.2613 H       1  ZINC000915315870    0.1700
@<TRIPOS>BOND
     1     1     2    1
     2     1    26    1
     3     1    27    1
     4     1    28    1
     5     2     3    1
     6     3    24   ar
     7     3     4   ar
     8     4     5    1
     9     4     6   ar
    10     6     7   ar
    11     6    29    1
    12     7     8    1
    13     7    23   ar
    14     8     9    2
    15     8    10    2
    16     8    11   am
    17    11    12    1
    18    11    30    1
    19    12    13    1
    20    12    22    1
    21    12    14    1
    22    14    15    1
    23    14    31    1
    24    14    32    1
    25    15    16    1
    26    15    33    1
    27    15    34    1
    28    16    17    1
    29    16    35    1
    30    16    36    1
    31    17    22    1
    32    17    18    2
    33    18    19    1
    34    19    20    1
    35    19    21    1
    36    20    37    1
    37    20    38    1
    38    20    39    1
    39    21    22    2
    40    21    40    1
    41    23    24   ar
    42    23    41    1
    43    24    25    1
@<TRIPOS>SUBSTRUCTURE
     1 ZINC000915315870        1 TEMP              0 ****  ****    0 ROOT


##########                                Name:    ZINC000494558165
##########                DOCK_Rotatable_Bonds:                  11
##########                         Heavy_Atoms:                  28
##########                    Molecular_Weight:             409.506
##########                DOCK_Rotatable_Bonds:                  11
##########                       Formal_Charge:        -6.55651e-07
##########                     HBond_Acceptors:                   9
##########                        HBond_Donors:                   3
##########                         Heavy_Atoms:                  28
##########                          Grid_Score:          -33.554234
##########                     Grid_vdw_energy:          -32.811787
##########                      Grid_es_energy:           -0.742447
##########           Internal_energy_repulsive:           29.366604

@<TRIPOS>MOLECULE
ZINC000494558165
 55 57 1 0 0
SMALL
USER_CHARGES


@<TRIPOS>ATOM
      1 O1         -8.8191    0.2676   57.4338 O.2     1  ZINC000494558165   -0.4400
      2 C2         -9.7576   -0.2545   56.8714 C.2     1  ZINC000494558165    0.5100
      3 C3        -10.5335   -1.3489   57.5580 C.3     1  ZINC000494558165    0.0300
      4 N4        -10.6133   -1.0640   58.9969 N.3     1  ZINC000494558165   -0.5000
      5 C5        -11.4227    0.1350   59.2521 C.3     1  ZINC000494558165    0.0500
      6 C6        -11.0619    0.7117   60.6226 C.3     1  ZINC000494558165   -0.1100
      7 C7        -11.6754    2.1058   60.7668 C.3     1  ZINC000494558165    0.0800
      8 O8        -11.3733    2.6275   62.0624 O.3     1  ZINC000494558165   -0.5700
      9 C9        -11.1388   -2.2208   59.7343 C.3     1  ZINC000494558165    0.1200
     10 H10       -11.8732   -1.8966   60.4716 H       1  ZINC000494558165    0.1000
     11 C11        -9.9882   -2.9839   60.4241 C.3     1  ZINC000494558165   -0.1200
     12 C12        -9.6189   -4.0498   59.3705 C.3     1  ZINC000494558165   -0.0900
     13 C13       -10.8835   -4.2682   58.5679 C.ar    1  ZINC000494558165   -0.0900
     14 C14       -11.2415   -5.3039   57.7217 C.ar    1  ZINC000494558165   -0.1100
     15 C15       -12.4680   -5.2899   57.0861 C.ar    1  ZINC000494558165   -0.1100
     16 C16       -13.3412   -4.2392   57.2951 C.ar    1  ZINC000494558165   -0.1200
     17 C17       -12.9858   -3.2049   58.1392 C.ar    1  ZINC000494558165   -0.1000
     18 C18       -11.7594   -3.2159   58.7772 C.ar    1  ZINC000494558165   -0.1300
     19 N19       -10.1108    0.1477   55.6345 N.am    1  ZINC000494558165   -0.6900
     20 C20        -9.4168    1.1266   55.0205 C.2     1  ZINC000494558165    0.7000
     21 O21        -8.4738    1.6476   55.5828 O.2     1  ZINC000494558165   -0.5200
     22 N22        -9.7689    1.5277   53.7829 N.am    1  ZINC000494558165   -0.7300
     23 C23        -9.0137    2.5904   53.1148 C.3     1  ZINC000494558165    0.1700
     24 H24        -8.6010    3.2707   53.8599 H       1  ZINC000494558165    0.1200
     25 C25        -7.8713    1.9728   52.2892 C.3     1  ZINC000494558165   -0.1400
     26 C26        -7.3357    3.0954   51.3636 C.3     1  ZINC000494558165   -0.5800
     27 S27        -8.8759    3.8979   50.7776 S.o2    1  ZINC000494558165    2.4000
     28 O28        -8.7161    5.3093   50.8175 O.2     1  ZINC000494558165   -0.9300
     29 O29        -9.3087    3.2682   49.5796 O.2     1  ZINC000494558165   -0.9300
     30 C30        -9.9441    3.3674   52.1624 C.3     1  ZINC000494558165   -0.6200
     31 H31       -11.5395   -1.3977   57.1410 H       1  ZINC000494558165    0.0700
     32 H32       -10.0296   -2.3031   57.4039 H       1  ZINC000494558165    0.1200
     33 H33       -11.2232    0.8790   58.4809 H       1  ZINC000494558165    0.0900
     34 H34       -12.4798   -0.1301   59.2364 H       1  ZINC000494558165    0.0400
     35 H35       -11.4518    0.0604   61.4049 H       1  ZINC000494558165    0.0700
     36 H36        -9.9779    0.7805   60.7138 H       1  ZINC000494558165    0.0800
     37 H37       -11.2619    2.7655   60.0040 H       1  ZINC000494558165    0.0500
     38 H38       -12.7566    2.0414   60.6442 H       1  ZINC000494558165    0.0400
     39 H39       -10.4372    2.8297   62.1966 H       1  ZINC000494558165    0.3800
     40 H40        -9.1445   -2.3212   60.6169 H       1  ZINC000494558165    0.0900
     41 H41       -10.3323   -3.4531   61.3458 H       1  ZINC000494558165    0.0800
     42 H42        -8.8202   -3.6833   58.7257 H       1  ZINC000494558165    0.0800
     43 H43        -9.3165   -4.9758   59.8594 H       1  ZINC000494558165    0.0800
     44 H44       -10.5596   -6.1251   57.5576 H       1  ZINC000494558165    0.1200
     45 H45       -12.7444   -6.0995   56.4269 H       1  ZINC000494558165    0.1300
     46 H46       -14.3004   -4.2266   56.7988 H       1  ZINC000494558165    0.1200
     47 H47       -13.6685   -2.3840   58.3017 H       1  ZINC000494558165    0.1200
     48 H48       -10.8642   -0.2672   55.1861 H       1  ZINC000494558165    0.4100
     49 H49       -10.5224    1.1127   53.3346 H       1  ZINC000494558165    0.4000
     50 H50        -7.0783    1.6246   52.9511 H       1  ZINC000494558165    0.1100
     51 H51        -8.2493    1.1439   51.6906 H       1  ZINC000494558165    0.0900
     52 H52        -6.7219    3.7998   51.9251 H       1  ZINC000494558165    0.1400
     53 H53        -6.7769    2.6741   50.5279 H       1  ZINC000494558165    0.1400
     54 H54       -10.7418    2.7199   51.7984 H       1  ZINC000494558165    0.1500
     55 H55       -10.3626    4.2356   52.6715 H       1  ZINC000494558165    0.1500
@<TRIPOS>BOND
     1     1     2    2
     2     2     3    1
     3     2    19   am
     4     3     4    1
     5     3    31    1
     6     3    32    1
     7     4     5    1
     8     4     9    1
     9     5     6    1
    10     5    33    1
    11     5    34    1
    12     6     7    1
    13     6    35    1
    14     6    36    1
    15     7     8    1
    16     7    37    1
    17     7    38    1
    18     8    39    1
    19     9    10    1
    20     9    18    1
    21     9    11    1
    22    11    12    1
    23    11    40    1
    24    11    41    1
    25    12    13    1
    26    12    42    1
    27    12    43    1
    28    13    18   ar
    29    13    14   ar
    30    14    15   ar
    31    14    44    1
    32    15    16   ar
    33    15    45    1
    34    16    17   ar
    35    16    46    1
    36    17    18   ar
    37    17    47    1
    38    19    20   am
    39    19    48    1
    40    20    21    2
    41    20    22   am
    42    22    23    1
    43    22    49    1
    44    23    24    1
    45    23    30    1
    46    23    25    1
    47    25    26    1
    48    25    50    1
    49    25    51    1
    50    26    27    1
    51    26    52    1
    52    26    53    1
    53    27    28    2
    54    27    29    2
    55    27    30    1
    56    30    54    1
    57    30    55    1
@<TRIPOS>SUBSTRUCTURE
     1 ZINC000494558165        1 TEMP              0 ****  ****    0 ROOT


##########                                Name:    ZINC000800038938
##########                DOCK_Rotatable_Bonds:                   6
##########                         Heavy_Atoms:                  25
##########                    Molecular_Weight:             386.274
##########                DOCK_Rotatable_Bonds:                   6
##########                       Formal_Charge:           0.0200003
##########                     HBond_Acceptors:                   7
##########                        HBond_Donors:                   0
##########                         Heavy_Atoms:                  25
##########                          Grid_Score:          -33.520283
##########                     Grid_vdw_energy:          -32.787571
##########                      Grid_es_energy:           -0.732713
##########           Internal_energy_repulsive:            9.549060

@<TRIPOS>MOLECULE
ZINC000800038938
 46 48 1 0 0
SMALL
USER_CHARGES


@<TRIPOS>ATOM
      1 C1        -15.9265   -1.1544   64.5311 C.3     1  ZINC000800038938    0.0300
      2 O2        -15.5812   -1.9858   63.4213 O.3     1  ZINC000800038938   -0.3800
      3 C3        -14.7865   -1.3317   62.4300 C.3     1  ZINC000800038938    0.0900
      4 H4        -14.0640   -0.6702   62.9080 H       1  ZINC000800038938    0.0700
      5 C5        -15.6910   -0.5249   61.4757 C.3     1  ZINC000800038938   -0.1400
      6 C6        -15.0257   -0.6949   60.0874 C.3     1  ZINC000800038938   -0.1400
      7 C7        -14.5431   -2.1665   60.1175 C.3     1  ZINC000800038938    0.0900
      8 H8        -15.3670   -2.8429   59.8905 H       1  ZINC000800038938    0.0900
      9 O9        -13.4525   -2.3630   59.1793 O.3     1  ZINC000800038938   -0.3500
     10 C10       -13.7801   -2.7520   57.9370 C.2     1  ZINC000800038938    0.4500
     11 O11       -14.3832   -2.0006   57.2080 O.2     1  ZINC000800038938   -0.4800
     12 C12       -13.3957   -4.1259   57.4517 C.3     1  ZINC000800038938    0.1500
     13 H13       -12.7082   -4.5899   58.1591 H       1  ZINC000800038938    0.1200
     14 C14       -14.6581   -5.0000   57.2965 C.3     1  ZINC000800038938   -0.1200
     15 C15       -14.3607   -5.8145   56.0098 C.3     1  ZINC000800038938   -0.1300
     16 C16       -13.5868   -4.7780   55.1575 C.3     1  ZINC000800038938    0.0900
     17 N17       -12.7621   -4.0297   56.1285 N.am    1  ZINC000800038938   -0.6000
     18 C18       -11.6225   -3.3680   55.8459 C.2     1  ZINC000800038938    0.5800
     19 O19       -11.1933   -3.3552   54.7087 O.2     1  ZINC000800038938   -0.4900
     20 C20       -10.8948   -2.6582   56.9184 C.ar    1  ZINC000800038938   -0.1100
     21 C21       -10.3278   -3.3745   57.9736 C.ar    1  ZINC000800038938   -0.0700
     22 C22        -9.6493   -2.7050   58.9724 C.ar    1  ZINC000800038938   -0.0400
     23 Cl23       -8.9429   -3.5942   60.2855 Cl      1  ZINC000800038938   -0.0500
     24 C24        -9.5306   -1.3259   58.9291 C.ar    1  ZINC000800038938   -0.0700
     25 C25       -10.0903   -0.6098   57.8867 C.ar    1  ZINC000800038938   -0.1000
     26 C26       -10.7664   -1.2673   56.8777 C.ar    1  ZINC000800038938    0.0100
     27 Cl27      -11.4683   -0.3667   55.5701 Cl      1  ZINC000800038938   -0.0300
     28 C28       -14.0557   -2.3753   61.5673 C.3     1  ZINC000800038938   -0.1200
     29 H29       -16.5292   -1.7242   65.2383 H       1  ZINC000800038938    0.0900
     30 H30       -15.0172   -0.8097   65.0237 H       1  ZINC000800038938    0.0400
     31 H31       -16.4963   -0.2950   64.1778 H       1  ZINC000800038938    0.0400
     32 H32       -16.7004   -0.9362   61.4680 H       1  ZINC000800038938    0.0800
     33 H33       -15.7085    0.5261   61.7642 H       1  ZINC000800038938    0.0800
     34 H34       -15.7526   -0.5431   59.2894 H       1  ZINC000800038938    0.0800
     35 H35       -14.1818   -0.0139   59.9774 H       1  ZINC000800038938    0.0800
     36 H36       -14.7761   -5.6628   58.1538 H       1  ZINC000800038938    0.1000
     37 H37       -15.5435   -4.3784   57.1635 H       1  ZINC000800038938    0.0900
     38 H38       -13.7380   -6.6814   56.2313 H       1  ZINC000800038938    0.0900
     39 H39       -15.2845   -6.1151   55.5155 H       1  ZINC000800038938    0.1000
     40 H40       -12.9503   -5.2835   54.4313 H       1  ZINC000800038938    0.0900
     41 H41       -14.2820   -4.1075   54.6522 H       1  ZINC000800038938    0.0800
     42 H42       -10.4198   -4.4499   58.0090 H       1  ZINC000800038938    0.1500
     43 H43        -8.9987   -0.8072   59.7129 H       1  ZINC000800038938    0.1500
     44 H44        -9.9943    0.4657   57.8591 H       1  ZINC000800038938    0.1500
     45 H45       -12.9783   -2.2205   61.6250 H       1  ZINC000800038938    0.0900
     46 H46       -14.3074   -3.3808   61.9046 H       1  ZINC000800038938    0.0900
@<TRIPOS>BOND
     1     1     2    1
     2     1    29    1
     3     1    30    1
     4     1    31    1
     5     2     3    1
     6     3     4    1
     7     3    28    1
     8     3     5    1
     9     5     6    1
    10     5    32    1
    11     5    33    1
    12     6     7    1
    13     6    34    1
    14     6    35    1
    15     7     8    1
    16     7     9    1
    17     7    28    1
    18     9    10    1
    19    10    11    2
    20    10    12    1
    21    12    13    1
    22    12    17    1
    23    12    14    1
    24    14    15    1
    25    14    36    1
    26    14    37    1
    27    15    16    1
    28    15    38    1
    29    15    39    1
    30    16    17    1
    31    16    40    1
    32    16    41    1
    33    17    18   am
    34    18    19    2
    35    18    20    1
    36    20    26   ar
    37    20    21   ar
    38    21    22   ar
    39    21    42    1
    40    22    23    1
    41    22    24   ar
    42    24    25   ar
    43    24    43    1
    44    25    26   ar
    45    25    44    1
    46    26    27    1
    47    28    45    1
    48    28    46    1
@<TRIPOS>SUBSTRUCTURE
     1 ZINC000800038938        1 TEMP              0 ****  ****    0 ROOT


##########                                Name:    ZINC001085817863
##########                DOCK_Rotatable_Bonds:                   7
##########                         Heavy_Atoms:                  24
##########                    Molecular_Weight:             326.442
##########                DOCK_Rotatable_Bonds:                   7
##########                       Formal_Charge:           0.0299998
##########                     HBond_Acceptors:                   5
##########                        HBond_Donors:                   0
##########                         Heavy_Atoms:                  24
##########                          Grid_Score:          -33.512253
##########                     Grid_vdw_energy:          -33.006920
##########                      Grid_es_energy:           -0.505335
##########           Internal_energy_repulsive:           14.729138

@<TRIPOS>MOLECULE
ZINC001085817863
 50 52 1 0 0
SMALL
USER_CHARGES


@<TRIPOS>ATOM
      1 C1        -14.5649   -3.1571   60.1438 C.3     1  ZINC001085817863   -0.1400
      2 C2        -13.8103   -2.5412   58.9640 C.3     1  ZINC001085817863   -0.0700
      3 C3        -12.5385   -3.3130   58.7231 C.2     1  ZINC001085817863    0.1100
      4 C4        -12.3794   -4.3332   57.8263 C.2     1  ZINC001085817863   -0.2400
      5 C5        -13.4022   -4.8832   56.9208 C.2     1  ZINC001085817863    0.6000
      6 O6        -14.3469   -5.5008   57.3738 O.2     1  ZINC001085817863   -0.5300
      7 N7        -13.2914   -4.7021   55.5897 N.am    1  ZINC001085817863   -0.6100
      8 C8        -14.3089   -5.2492   54.6889 C.3     1  ZINC001085817863    0.0800
      9 C9        -12.1535   -3.9582   55.0439 C.3     1  ZINC001085817863    0.1300
     10 C10       -12.6588   -2.6971   54.3404 C.3     1  ZINC001085817863    0.0100
     11 H11       -13.2986   -2.9187   53.4861 H       1  ZINC001085817863    0.0800
     12 C12       -13.2580   -1.6596   55.3002 C.3     1  ZINC001085817863   -0.1400
     13 C13       -12.5476   -0.6546   54.3827 C.3     1  ZINC001085817863    0.0000
     14 N14       -11.5915   -1.7250   54.0384 N.3     1  ZINC001085817863   -0.4400
     15 C15       -11.2804   -1.7114   52.6028 C.3     1  ZINC001085817863    0.0700
     16 C16       -10.0231   -0.9144   52.3688 C.ar    1  ZINC001085817863   -0.1300
     17 C17       -10.0175    0.4592   52.5567 C.ar    1  ZINC001085817863   -0.0700
     18 C18        -8.8376    1.1515   52.3299 C.ar    1  ZINC001085817863   -0.1700
     19 C19        -7.7145    0.4544   51.9272 C.ar    1  ZINC001085817863    0.1000
     20 N20        -7.7565   -0.8529   51.7584 N.ar    1  ZINC001085817863   -0.4800
     21 C21        -8.8592   -1.5444   51.9697 C.ar    1  ZINC001085817863    0.1200
     22 C22       -10.9839   -4.7685   57.9482 C.2     1  ZINC001085817863   -0.1900
     23 C23       -10.4256   -3.9892   58.8914 C.2     1  ZINC001085817863   -0.0200
     24 N24       -11.3640   -3.1113   59.3502 N.pl3   1  ZINC001085817863   -0.4400
     25 C25       -11.1300   -2.1007   60.3847 C.3     1  ZINC001085817863    0.0600
     26 H26       -15.4848   -2.5989   60.3181 H       1  ZINC001085817863    0.0600
     27 H27       -14.8073   -4.1955   59.9180 H       1  ZINC001085817863    0.0500
     28 H28       -13.9402   -3.1157   61.0362 H       1  ZINC001085817863    0.0600
     29 H29       -14.4349   -2.5827   58.0717 H       1  ZINC001085817863    0.0600
     30 H30       -13.5679   -1.5028   59.1899 H       1  ZINC001085817863    0.1100
     31 H31       -15.2841   -4.8382   54.9499 H       1  ZINC001085817863    0.0700
     32 H32       -14.0653   -4.9821   53.6607 H       1  ZINC001085817863    0.0700
     33 H33       -14.3344   -6.3346   54.7860 H       1  ZINC001085817863    0.0600
     34 H34       -11.4807   -3.6774   55.8542 H       1  ZINC001085817863    0.0800
     35 H35       -11.6196   -4.5839   54.3288 H       1  ZINC001085817863    0.1000
     36 H36       -14.3459   -1.5997   55.2702 H       1  ZINC001085817863    0.0800
     37 H37       -12.8548   -1.7026   56.3120 H       1  ZINC001085817863    0.1000
     38 H38       -13.1571   -0.3305   53.5392 H       1  ZINC001085817863    0.0700
     39 H39       -12.0933    0.1780   54.9199 H       1  ZINC001085817863    0.0800
     40 H40       -11.1332   -2.7333   52.2532 H       1  ZINC001085817863    0.0900
     41 H41       -12.1063   -1.2559   52.0564 H       1  ZINC001085817863    0.0500
     42 H42       -10.9110    0.9776   52.8717 H       1  ZINC001085817863    0.1300
     43 H43        -8.7970    2.2221   52.4661 H       1  ZINC001085817863    0.1300
     44 H44        -6.7918    0.9863   51.7482 H       1  ZINC001085817863    0.1600
     45 H45        -8.8553   -2.6140   51.8210 H       1  ZINC001085817863    0.1500
     46 H46       -10.5010   -5.5580   57.3914 H       1  ZINC001085817863    0.1600
     47 H47        -9.4009   -4.0461   59.2278 H       1  ZINC001085817863    0.1600
     48 H48       -10.7931   -1.1748   59.9184 H       1  ZINC001085817863    0.0800
     49 H49       -12.0562   -1.9171   60.9293 H       1  ZINC001085817863    0.0900
     50 H50       -10.3667   -2.4581   61.0757 H       1  ZINC001085817863    0.0900
@<TRIPOS>BOND
     1     1     2    1
     2     1    26    1
     3     1    27    1
     4     1    28    1
     5     2     3    1
     6     2    29    1
     7     2    30    1
     8     3    24    1
     9     3     4    2
    10     4     5    1
    11     4    22    1
    12     5     6    2
    13     5     7   am
    14     7     8    1
    15     7     9    1
    16     8    31    1
    17     8    32    1
    18     8    33    1
    19     9    10    1
    20     9    34    1
    21     9    35    1
    22    10    11    1
    23    10    14    1
    24    10    12    1
    25    12    13    1
    26    12    36    1
    27    12    37    1
    28    13    14    1
    29    13    38    1
    30    13    39    1
    31    14    15    1
    32    15    16    1
    33    15    40    1
    34    15    41    1
    35    16    21   ar
    36    16    17   ar
    37    17    18   ar
    38    17    42    1
    39    18    19   ar
    40    18    43    1
    41    19    20   ar
    42    19    44    1
    43    20    21   ar
    44    21    45    1
    45    22    23    2
    46    22    46    1
    47    23    24    1
    48    23    47    1
    49    24    25    1
    50    25    48    1
    51    25    49    1
    52    25    50    1
@<TRIPOS>SUBSTRUCTURE
     1 ZINC001085817863        1 TEMP              0 ****  ****    0 ROOT


##########                                Name:    ZINC000537799672
##########                DOCK_Rotatable_Bonds:                   9
##########                         Heavy_Atoms:                  29
##########                    Molecular_Weight:             401.478
##########                DOCK_Rotatable_Bonds:                   9
##########                       Formal_Charge:        -4.47035e-07
##########                     HBond_Acceptors:                   6
##########                        HBond_Donors:                   1
##########                         Heavy_Atoms:                  29
##########                          Grid_Score:          -33.490833
##########                     Grid_vdw_energy:          -32.766209
##########                      Grid_es_energy:           -0.724626
##########           Internal_energy_repulsive:           18.687460

@<TRIPOS>MOLECULE
ZINC000537799672
 57 59 1 0 0
SMALL
USER_CHARGES


@<TRIPOS>ATOM
      1 C1        -11.1279    3.7039   54.5154 C.3     1  ZINC000537799672    0.0300
      2 O2        -10.2779    3.2617   55.5756 O.3     1  ZINC000537799672   -0.3800
      3 C3        -10.3163    1.8513   55.8018 C.3     1  ZINC000537799672    0.1200
      4 H4        -11.3475    1.5371   55.9630 H       1  ZINC000537799672    0.0900
      5 C5         -9.7546    1.1345   54.6011 C.ar    1  ZINC000537799672   -0.1300
      6 C6        -10.2467   -0.1075   54.2454 C.ar    1  ZINC000537799672   -0.0600
      7 C7         -9.7324   -0.7658   53.1446 C.ar    1  ZINC000537799672   -0.1500
      8 C8         -8.7240   -0.1809   52.3975 C.ar    1  ZINC000537799672    0.1000
      9 F9         -8.2208   -0.8234   51.3209 F       1  ZINC000537799672   -0.1400
     10 C10        -8.2322    1.0633   52.7544 C.ar    1  ZINC000537799672   -0.1500
     11 C11        -8.7514    1.7219   53.8528 C.ar    1  ZINC000537799672   -0.0800
     12 C12        -9.4802    1.5097   57.0368 C.3     1  ZINC000537799672    0.1600
     13 H13        -9.9104    1.9954   57.9126 H       1  ZINC000537799672    0.1000
     14 C14        -8.0459    2.0020   56.8336 C.3     1  ZINC000537799672   -0.1600
     15 N15        -9.4746    0.0584   57.2366 N.am    1  ZINC000537799672   -0.7100
     16 C16       -10.5401   -0.5490   57.7952 C.2     1  ZINC000537799672    0.5600
     17 O17       -11.5063    0.1071   58.1320 O.2     1  ZINC000537799672   -0.5400
     18 C18       -10.5338   -2.0135   57.9984 C.ar    1  ZINC000537799672   -0.1400
     19 C19       -10.9536   -2.8647   56.9752 C.ar    1  ZINC000537799672   -0.0800
     20 C20       -10.9448   -4.2305   57.1711 C.ar    1  ZINC000537799672   -0.1300
     21 C21       -10.5215   -4.7564   58.3786 C.ar    1  ZINC000537799672   -0.0900
     22 C22       -10.1043   -3.9179   59.3973 C.ar    1  ZINC000537799672   -0.1100
     23 C23       -10.1024   -2.5509   59.2123 C.ar    1  ZINC000537799672   -0.0300
     24 C24        -9.6473   -1.6392   60.3226 C.3     1  ZINC000537799672    0.1100
     25 O25       -10.7747   -0.9465   60.8624 O.3     1  ZINC000537799672   -0.3800
     26 C26       -10.4309    0.1487   61.7135 C.3     1  ZINC000537799672    0.0900
     27 C27       -11.6425    1.0719   61.8753 C.3     1  ZINC000537799672   -0.1800
     28 C28       -11.2895    2.1982   62.8502 C.3     1  ZINC000537799672    0.0600
     29 O29       -10.8861    1.6355   64.1004 O.3     1  ZINC000537799672   -0.3800
     30 C30        -9.7291    0.8007   64.0182 C.3     1  ZINC000537799672    0.0600
     31 C31       -10.0195   -0.3818   63.0902 C.3     1  ZINC000537799672   -0.1500
     32 H32       -12.1494    3.3760   54.7082 H       1  ZINC000537799672    0.0500
     33 H33       -11.1003    4.7919   54.4573 H       1  ZINC000537799672    0.0900
     34 H34       -10.7824    3.2807   53.5722 H       1  ZINC000537799672    0.0400
     35 H35       -11.0333   -0.5636   54.8284 H       1  ZINC000537799672    0.1300
     36 H36       -10.1166   -1.7364   52.8674 H       1  ZINC000537799672    0.1400
     37 H37        -7.4455    1.5203   52.1724 H       1  ZINC000537799672    0.1400
     38 H38        -8.3683    2.6925   54.1312 H       1  ZINC000537799672    0.1300
     39 H39        -8.0573    3.0648   56.5916 H       1  ZINC000537799672    0.0700
     40 H40        -7.4744    1.8438   57.7482 H       1  ZINC000537799672    0.0600
     41 H41        -7.5840    1.4483   56.0162 H       1  ZINC000537799672    0.0700
     42 H42        -8.7041   -0.4654   56.9667 H       1  ZINC000537799672    0.4000
     43 H43       -11.2850   -2.4553   56.0324 H       1  ZINC000537799672    0.1300
     44 H44       -11.2694   -4.8904   56.3801 H       1  ZINC000537799672    0.1300
     45 H45       -10.5168   -5.8262   58.5269 H       1  ZINC000537799672    0.1300
     46 H46        -9.7754   -4.3347   60.3377 H       1  ZINC000537799672    0.1400
     47 H47        -9.1742   -2.2301   61.1070 H       1  ZINC000537799672    0.0800
     48 H48        -8.9314   -0.9174   59.9296 H       1  ZINC000537799672    0.0800
     49 H49        -9.6027    0.7054   61.2748 H       1  ZINC000537799672    0.0600
     50 H50       -11.9080    1.4975   60.9077 H       1  ZINC000537799672    0.0800
     51 H51       -12.4849    0.5018   62.2670 H       1  ZINC000537799672    0.0800
     52 H52       -10.4735    2.7924   62.4389 H       1  ZINC000537799672    0.0500
     53 H53       -12.1617    2.8340   63.0022 H       1  ZINC000537799672    0.1000
     54 H54        -8.8927    1.3767   63.6222 H       1  ZINC000537799672    0.0500
     55 H55        -9.4772    0.4298   65.0117 H       1  ZINC000537799672    0.1000
     56 H56       -10.8292   -0.9811   63.5065 H       1  ZINC000537799672    0.0800
     57 H57        -9.1242   -0.9957   62.9914 H       1  ZINC000537799672    0.0800
@<TRIPOS>BOND
     1     1     2    1
     2     1    32    1
     3     1    33    1
     4     1    34    1
     5     2     3    1
     6     3     4    1
     7     3     5    1
     8     3    12    1
     9     5    11   ar
    10     5     6   ar
    11     6     7   ar
    12     6    35    1
    13     7     8   ar
    14     7    36    1
    15     8     9    1
    16     8    10   ar
    17    10    11   ar
    18    10    37    1
    19    11    38    1
    20    12    13    1
    21    12    14    1
    22    12    15    1
    23    14    39    1
    24    14    40    1
    25    14    41    1
    26    15    16   am
    27    15    42    1
    28    16    17    2
    29    16    18    1
    30    18    23   ar
    31    18    19   ar
    32    19    20   ar
    33    19    43    1
    34    20    21   ar
    35    20    44    1
    36    21    22   ar
    37    21    45    1
    38    22    23   ar
    39    22    46    1
    40    23    24    1
    41    24    25    1
    42    24    47    1
    43    24    48    1
    44    25    26    1
    45    26    31    1
    46    26    27    1
    47    26    49    1
    48    27    28    1
    49    27    50    1
    50    27    51    1
    51    28    29    1
    52    28    52    1
    53    28    53    1
    54    29    30    1
    55    30    31    1
    56    30    54    1
    57    30    55    1
    58    31    56    1
    59    31    57    1
@<TRIPOS>SUBSTRUCTURE
     1 ZINC000537799672        1 TEMP              0 ****  ****    0 ROOT


##########                                Name:    ZINC000054627026
##########                DOCK_Rotatable_Bonds:                   5
##########                         Heavy_Atoms:                  28
##########                    Molecular_Weight:              370.37
##########                DOCK_Rotatable_Bonds:                   5
##########                       Formal_Charge:         6.85453e-07
##########                     HBond_Acceptors:                   8
##########                        HBond_Donors:                   2
##########                         Heavy_Atoms:                  28
##########                          Grid_Score:          -33.490505
##########                     Grid_vdw_energy:          -31.823050
##########                      Grid_es_energy:           -1.667454
##########           Internal_energy_repulsive:            4.549396

@<TRIPOS>MOLECULE
ZINC000054627026
 42 46 1 0 0
SMALL
USER_CHARGES


@<TRIPOS>ATOM
      1 O1        -11.7645   -2.4370   54.7684 O.2     1  ZINC000054627026   -0.5200
      2 C2        -12.8932   -2.8394   54.9753 C.2     1  ZINC000054627026    0.6100
      3 N3        -13.2704   -3.1752   56.2249 N.am    1  ZINC000054627026   -0.6500
      4 C4        -12.3607   -3.0661   57.2841 C.ar    1  ZINC000054627026    0.1400
      5 C5        -11.3219   -3.9870   57.4025 C.ar    1  ZINC000054627026   -0.0900
      6 C6        -10.4194   -3.8907   58.4402 C.ar    1  ZINC000054627026   -0.0900
      7 C7        -10.5432   -2.8722   59.3739 C.ar    1  ZINC000054627026    0.0500
      8 N8         -9.8218   -2.5125   60.4990 N.pl3   1  ZINC000054627026   -0.5900
      9 C9        -10.4265   -1.4023   61.0295 C.2     1  ZINC000054627026    0.3700
     10 C10        -9.9799   -0.6903   62.2359 C.2     1  ZINC000054627026    0.0200
     11 C11       -10.3870    0.5493   62.6306 C.2     1  ZINC000054627026   -0.1200
     12 C12        -9.7111    0.8341   63.8309 C.2     1  ZINC000054627026   -0.2200
     13 C13        -8.9324   -0.2318   64.1096 C.2     1  ZINC000054627026   -0.0100
     14 O14        -9.1009   -1.1519   63.1478 O.3     1  ZINC000054627026   -0.1700
     15 N15       -11.4650   -1.0707   60.2963 N.2     1  ZINC000054627026   -0.4600
     16 C16       -11.5887   -1.9379   59.2625 C.ar    1  ZINC000054627026    0.0700
     17 C17       -12.4953   -2.0421   58.2029 C.ar    1  ZINC000054627026   -0.0900
     18 C18       -13.8513   -2.9543   53.8599 C.2     1  ZINC000054627026   -0.1000
     19 C19       -13.6843   -2.4354   52.6071 C.2     1  ZINC000054627026    0.1000
     20 N20       -14.7856   -2.7657   51.8978 N.pl3   1  ZINC000054627026   -0.3100
     21 C21       -15.0466   -2.4409   50.5590 C.ar    1  ZINC000054627026    0.1300
     22 C22       -14.1771   -1.6131   49.8618 C.ar    1  ZINC000054627026   -0.1200
     23 C23       -14.4366   -1.2953   48.5430 C.ar    1  ZINC000054627026   -0.1000
     24 C24       -15.5614   -1.8006   47.9170 C.ar    1  ZINC000054627026   -0.1100
     25 C25       -16.4295   -2.6250   48.6090 C.ar    1  ZINC000054627026   -0.1000
     26 C26       -16.1720   -2.9512   49.9261 C.ar    1  ZINC000054627026   -0.1000
     27 N27       -15.6171   -3.4963   52.7585 N.2     1  ZINC000054627026   -0.0500
     28 N28       -15.0337   -3.5924   53.9023 N.2     1  ZINC000054627026   -0.2000
     29 H29       -14.1720   -3.4923   56.3907 H       1  ZINC000054627026    0.4200
     30 H30       -11.2234   -4.7811   56.6773 H       1  ZINC000054627026    0.1500
     31 H31        -9.6166   -4.6081   58.5264 H       1  ZINC000054627026    0.1300
     32 H32        -9.0360   -2.9621   60.8473 H       1  ZINC000054627026    0.4300
     33 H33       -11.0916    1.1893   62.1203 H       1  ZINC000054627026    0.1600
     34 H34        -9.7987    1.7361   64.4183 H       1  ZINC000054627026    0.1600
     35 H35        -8.2832   -0.3297   64.9672 H       1  ZINC000054627026    0.2100
     36 H36       -13.2989   -1.3272   58.1043 H       1  ZINC000054627026    0.1400
     37 H37       -12.8355   -1.8698   52.2521 H       1  ZINC000054627026    0.2100
     38 H38       -13.2989   -1.2176   50.3503 H       1  ZINC000054627026    0.1400
     39 H39       -13.7606   -0.6514   48.0001 H       1  ZINC000054627026    0.1400
     40 H40       -15.7625   -1.5505   46.8858 H       1  ZINC000054627026    0.1400
     41 H41       -17.3073   -3.0179   48.1175 H       1  ZINC000054627026    0.1400
     42 H42       -16.8504   -3.5953   50.4661 H       1  ZINC000054627026    0.1400
@<TRIPOS>BOND
     1     1     2    2
     2     2     3   am
     3     2    18    1
     4     3     4    1
     5     3    29    1
     6     4    17   ar
     7     4     5   ar
     8     5     6   ar
     9     5    30    1
    10     6     7   ar
    11     6    31    1
    12     7    16   ar
    13     7     8    1
    14     8     9    1
    15     8    32    1
    16     9    10    1
    17     9    15    2
    18    10    14    1
    19    10    11    2
    20    11    12    1
    21    11    33    1
    22    12    13    2
    23    12    34    1
    24    13    14    1
    25    13    35    1
    26    15    16    1
    27    16    17   ar
    28    17    36    1
    29    18    28    1
    30    18    19    2
    31    19    20    1
    32    19    37    1
    33    20    21    1
    34    20    27    1
    35    21    26   ar
    36    21    22   ar
    37    22    23   ar
    38    22    38    1
    39    23    24   ar
    40    23    39    1
    41    24    25   ar
    42    24    40    1
    43    25    26   ar
    44    25    41    1
    45    26    42    1
    46    27    28    2
@<TRIPOS>SUBSTRUCTURE
     1 ZINC000054627026        1 TEMP              0 ****  ****    0 ROOT


##########                                Name:    ZINC001291841503
##########                DOCK_Rotatable_Bonds:                   7
##########                         Heavy_Atoms:                  28
##########                    Molecular_Weight:             397.544
##########                DOCK_Rotatable_Bonds:                   7
##########                       Formal_Charge:         -0.00999964
##########                     HBond_Acceptors:                   7
##########                        HBond_Donors:                   0
##########                         Heavy_Atoms:                  28
##########                          Grid_Score:          -33.481300
##########                     Grid_vdw_energy:          -33.397297
##########                      Grid_es_energy:           -0.084003
##########           Internal_energy_repulsive:           16.730150

@<TRIPOS>MOLECULE
ZINC001291841503
 55 58 1 0 0
SMALL
USER_CHARGES


@<TRIPOS>ATOM
      1 C1        -11.8894   -3.8032   52.6269 C.3     1  ZINC001291841503   -0.1500
      2 C2        -11.1649   -3.2312   53.8472 C.3     1  ZINC001291841503   -0.1100
      3 C3        -12.1869   -2.8880   54.9327 C.3     1  ZINC001291841503    0.0500
      4 H4        -12.7947   -3.7663   55.1504 H       1  ZINC001291841503    0.0900
      5 C5        -11.4655   -2.4541   56.1827 C.2     1  ZINC001291841503    0.2000
      6 N6        -10.7664   -1.3648   56.3320 N.2     1  ZINC001291841503   -0.2700
      7 N7        -10.2891   -1.3074   57.5240 N.2     1  ZINC001291841503   -0.3100
      8 C8        -10.6613   -2.3656   58.2047 C.2     1  ZINC001291841503    0.3600
      9 N9        -10.3407   -2.6525   59.5221 N.3     1  ZINC001291841503   -0.4500
     10 C10        -9.1294   -3.4797   59.6011 C.3     1  ZINC001291841503    0.0200
     11 C11       -10.1889   -1.4203   60.3072 C.3     1  ZINC001291841503    0.0700
     12 H12        -9.4079   -0.7875   59.8857 H       1  ZINC001291841503    0.0800
     13 C13       -11.5355   -0.6516   60.3953 C.3     1  ZINC001291841503   -0.1400
     14 C14       -11.3608    0.0944   61.7421 C.3     1  ZINC001291841503    0.0500
     15 O15       -10.6471   -0.8211   62.5882 O.3     1  ZINC001291841503   -0.3800
     16 C16        -9.8939   -1.7448   61.7875 C.3     1  ZINC001291841503    0.0600
     17 N17       -11.4283   -3.1275   57.3722 N.pl3   1  ZINC001291841503   -0.4700
     18 C18       -12.0707   -4.4065   57.6848 C.3     1  ZINC001291841503    0.1900
     19 C19       -13.5564   -4.2002   57.8304 C.2     1  ZINC001291841503   -0.2700
     20 C20       -14.5100   -5.0552   57.4487 C.2     1  ZINC001291841503    0.0800
     21 N21       -15.7394   -4.6436   57.6851 N.2     1  ZINC001291841503   -0.4800
     22 C22       -15.8759   -3.4892   58.2449 C.2     1  ZINC001291841503    0.0500
     23 C23       -17.1954   -2.8502   58.5934 C.3     1  ZINC001291841503   -0.0800
     24 S24       -14.3428   -2.7926   58.5408 S.3     1  ZINC001291841503    0.1800
     25 C25       -13.0747   -1.7696   54.4512 C.ar    1  ZINC001291841503   -0.0900
     26 C26       -12.5146   -0.6064   53.9569 C.ar    1  ZINC001291841503   -0.0900
     27 C27       -13.3290    0.4195   53.5152 C.ar    1  ZINC001291841503   -0.1200
     28 C28       -14.7035    0.2821   53.5672 C.ar    1  ZINC001291841503   -0.1200
     29 C29       -15.2636   -0.8813   54.0607 C.ar    1  ZINC001291841503   -0.1200
     30 C30       -14.4492   -1.9090   54.4984 C.ar    1  ZINC001291841503   -0.1100
     31 H31       -12.4302   -4.7047   52.9150 H       1  ZINC001291841503    0.0500
     32 H32       -12.5931   -3.0645   52.2430 H       1  ZINC001291841503    0.0500
     33 H33       -11.1613   -4.0477   51.8536 H       1  ZINC001291841503    0.0600
     34 H34       -10.4613   -3.9699   54.2311 H       1  ZINC001291841503    0.0800
     35 H35       -10.6241   -2.3297   53.5591 H       1  ZINC001291841503    0.0800
     36 H36        -8.2760   -2.9106   59.2320 H       1  ZINC001291841503    0.0500
     37 H37        -8.9530   -3.7678   60.6374 H       1  ZINC001291841503    0.0900
     38 H38        -9.2599   -4.3744   58.9924 H       1  ZINC001291841503    0.0700
     39 H39       -11.6421    0.0504   59.5683 H       1  ZINC001291841503    0.0900
     40 H40       -12.3793   -1.3405   60.4345 H       1  ZINC001291841503    0.0800
     41 H41       -10.7811    1.0060   61.5971 H       1  ZINC001291841503    0.0700
     42 H42       -12.3338    0.3286   62.1739 H       1  ZINC001291841503    0.0900
     43 H43       -10.2057   -2.7656   62.0087 H       1  ZINC001291841503    0.0800
     44 H44        -8.8295   -1.6294   61.9923 H       1  ZINC001291841503    0.0700
     45 H45       -11.8796   -5.1155   56.8792 H       1  ZINC001291841503    0.1100
     46 H46       -11.6651   -4.7984   58.6175 H       1  ZINC001291841503    0.1100
     47 H47       -14.2910   -6.0055   56.9847 H       1  ZINC001291841503    0.1700
     48 H48       -17.4850   -3.1419   59.6030 H       1  ZINC001291841503    0.0900
     49 H49       -17.0989   -1.7657   58.5423 H       1  ZINC001291841503    0.0800
     50 H50       -17.9572   -3.1808   57.8873 H       1  ZINC001291841503    0.0900
     51 H51       -11.4407   -0.4992   53.9162 H       1  ZINC001291841503    0.1300
     52 H52       -12.8913    1.3284   53.1296 H       1  ZINC001291841503    0.1200
     53 H53       -15.3398    1.0839   53.2228 H       1  ZINC001291841503    0.1200
     54 H54       -16.3375   -0.9885   54.1017 H       1  ZINC001291841503    0.1200
     55 H55       -14.8868   -2.8180   54.8839 H       1  ZINC001291841503    0.1200
@<TRIPOS>BOND
     1     1     2    1
     2     1    31    1
     3     1    32    1
     4     1    33    1
     5     2     3    1
     6     2    34    1
     7     2    35    1
     8     3     4    1
     9     3     5    1
    10     3    25    1
    11     5    17    1
    12     5     6    2
    13     6     7    1
    14     7     8    2
    15     8     9    1
    16     8    17    1
    17     9    10    1
    18     9    11    1
    19    10    36    1
    20    10    37    1
    21    10    38    1
    22    11    12    1
    23    11    16    1
    24    11    13    1
    25    13    14    1
    26    13    39    1
    27    13    40    1
    28    14    15    1
    29    14    41    1
    30    14    42    1
    31    15    16    1
    32    16    43    1
    33    16    44    1
    34    17    18    1
    35    18    19    1
    36    18    45    1
    37    18    46    1
    38    19    24    1
    39    19    20    2
    40    20    21    1
    41    20    47    1
    42    21    22    2
    43    22    23    1
    44    22    24    1
    45    23    48    1
    46    23    49    1
    47    23    50    1
    48    25    30   ar
    49    25    26   ar
    50    26    27   ar
    51    26    51    1
    52    27    28   ar
    53    27    52    1
    54    28    29   ar
    55    28    53    1
    56    29    30   ar
    57    29    54    1
    58    30    55    1
@<TRIPOS>SUBSTRUCTURE
     1 ZINC001291841503        1 TEMP              0 ****  ****    0 ROOT


##########                                Name:    ZINC000906038034
##########                DOCK_Rotatable_Bonds:                   5
##########                         Heavy_Atoms:                  23
##########                    Molecular_Weight:             387.428
##########                DOCK_Rotatable_Bonds:                   5
##########                       Formal_Charge:         -0.00999987
##########                     HBond_Acceptors:                  12
##########                        HBond_Donors:                   0
##########                         Heavy_Atoms:                  23
##########                          Grid_Score:          -33.449986
##########                     Grid_vdw_energy:          -33.415192
##########                      Grid_es_energy:           -0.034795
##########           Internal_energy_repulsive:            4.804111

@<TRIPOS>MOLECULE
ZINC000906038034
 35 36 1 0 0
SMALL
USER_CHARGES


@<TRIPOS>ATOM
      1 C1         -7.6392    0.4997   51.2592 C.3     1  ZINC000906038034    0.1000
      2 N2         -8.6550    0.0489   52.2139 N.pl3   1  ZINC000906038034   -0.3700
      3 C3         -8.8458    0.5389   53.4581 C.2     1  ZINC000906038034    0.0600
      4 C4         -9.8725   -0.1347   54.0195 C.2     1  ZINC000906038034   -0.2500
      5 C5        -10.3339   -1.0802   53.0804 C.2     1  ZINC000906038034    0.1200
      6 C6        -11.4479   -2.0325   53.2792 C.2     1  ZINC000906038034    0.1500
      7 N7        -12.1515   -2.1558   54.3680 N.2     1  ZINC000906038034   -0.4300
      8 C8        -13.1061   -3.0583   54.3629 C.2     1  ZINC000906038034    0.0600
      9 C9        -13.9891   -3.2960   55.5607 C.3     1  ZINC000906038034   -0.5300
     10 S10       -13.4383   -4.7891   56.4312 S.o2    1  ZINC000906038034    2.4200
     11 O11       -14.1982   -4.9239   57.6243 O.2     1  ZINC000906038034   -0.9100
     12 O12       -13.4037   -5.8663   55.5052 O.2     1  ZINC000906038034   -0.9200
     13 C13       -11.7342   -4.3556   56.8773 C.3     1  ZINC000906038034   -0.6100
     14 C14       -11.7495   -3.2791   57.9643 C.3     1  ZINC000906038034   -0.4500
     15 S15       -10.1516   -3.2639   58.8229 S.o     1  ZINC000906038034    1.3300
     16 O16        -9.9591   -4.5053   59.4871 O.2     1  ZINC000906038034   -0.7600
     17 C17       -10.3616   -1.9467   60.0523 C.3     1  ZINC000906038034    0.1200
     18 F18       -11.4256   -2.2671   60.9022 F       1  ZINC000906038034   -0.1900
     19 F19        -9.1879   -1.8178   60.8027 F       1  ZINC000906038034   -0.1700
     20 F20       -10.6331   -0.7391   59.4002 F       1  ZINC000906038034   -0.1600
     21 C21       -13.2459   -3.7523   53.2291 C.2     1  ZINC000906038034   -0.2300
     22 S22       -12.0413   -3.1769   52.0783 S.3     1  ZINC000906038034    0.1600
     23 N23        -9.6002   -0.9607   51.9921 N.2     1  ZINC000906038034   -0.2400
     24 H24        -8.0452    1.3084   50.6516 H       1  ZINC000906038034    0.0800
     25 H25        -6.7639    0.8570   51.8017 H       1  ZINC000906038034    0.0900
     26 H26        -7.3528   -0.3310   50.6141 H       1  ZINC000906038034    0.0900
     27 H27        -8.2765    1.3305   53.9226 H       1  ZINC000906038034    0.1800
     28 H28       -10.2695    0.0223   55.0115 H       1  ZINC000906038034    0.1600
     29 H29       -13.9280   -2.4401   56.2327 H       1  ZINC000906038034    0.1500
     30 H30       -15.0201   -3.4267   55.2318 H       1  ZINC000906038034    0.1600
     31 H31       -11.2197   -5.2413   57.2501 H       1  ZINC000906038034    0.1500
     32 H32       -11.2137   -3.9765   55.9978 H       1  ZINC000906038034    0.1500
     33 H33       -11.9264   -2.3050   57.5084 H       1  ZINC000906038034    0.1600
     34 H34       -12.5439   -3.4954   58.6787 H       1  ZINC000906038034    0.1300
     35 H35       -13.9744   -4.5288   53.0479 H       1  ZINC000906038034    0.1900
@<TRIPOS>BOND
     1     1     2    1
     2     1    24    1
     3     1    25    1
     4     1    26    1
     5     2    23    1
     6     2     3    1
     7     3     4    2
     8     3    27    1
     9     4     5    1
    10     4    28    1
    11     5     6    1
    12     5    23    2
    13     6    22    1
    14     6     7    2
    15     7     8    1
    16     8     9    1
    17     8    21    2
    18     9    10    1
    19     9    29    1
    20     9    30    1
    21    10    11    2
    22    10    12    2
    23    10    13    1
    24    13    14    1
    25    13    31    1
    26    13    32    1
    27    14    15    1
    28    14    33    1
    29    14    34    1
    30    15    16    2
    31    15    17    1
    32    17    18    1
    33    17    19    1
    34    17    20    1
    35    21    22    1
    36    21    35    1
@<TRIPOS>SUBSTRUCTURE
     1 ZINC000906038034        1 TEMP              0 ****  ****    0 ROOT


##########                                Name:    ZINC000151850193
##########                DOCK_Rotatable_Bonds:                  11
##########                         Heavy_Atoms:                  23
##########                    Molecular_Weight:             328.452
##########                DOCK_Rotatable_Bonds:                  11
##########                       Formal_Charge:            0.039999
##########                     HBond_Acceptors:                   6
##########                        HBond_Donors:                   2
##########                         Heavy_Atoms:                  23
##########                          Grid_Score:          -33.441170
##########                     Grid_vdw_energy:          -31.966217
##########                      Grid_es_energy:           -1.474953
##########           Internal_energy_repulsive:           31.256971

@<TRIPOS>MOLECULE
ZINC000151850193
 55 55 1 0 0
SMALL
USER_CHARGES


@<TRIPOS>ATOM
      1 C1        -14.3980   -5.8521   56.4927 C.3     1  ZINC000151850193   -0.1500
      2 C2        -14.2844   -4.5536   55.6915 C.3     1  ZINC000151850193   -0.1000
      3 C3        -13.4374   -3.5458   56.4712 C.3     1  ZINC000151850193   -0.0800
      4 C4        -13.9059   -3.3684   57.9168 C.3     1  ZINC000151850193   -0.1000
      5 C5        -15.3799   -2.9582   57.9285 C.3     1  ZINC000151850193   -0.1500
      6 C6        -11.9234   -3.7790   56.3366 C.3     1  ZINC000151850193    0.1400
      7 H7        -11.6593   -4.8109   56.1050 H       1  ZINC000151850193    0.1000
      8 N8        -11.1437   -3.2278   57.4476 N.am    1  ZINC000151850193   -0.7000
      9 C9        -10.5390   -4.0557   58.3226 C.2     1  ZINC000151850193    0.5200
     10 O10       -10.6417   -5.2570   58.1910 O.2     1  ZINC000151850193   -0.5300
     11 C11        -9.7355   -3.4888   59.4646 C.3     1  ZINC000151850193   -0.1500
     12 C12       -10.6773   -3.0910   60.6027 C.3     1  ZINC000151850193    0.1500
     13 N13       -10.2844   -1.7804   61.1263 N.am    1  ZINC000151850193   -0.7100
     14 C14       -11.0906   -0.7148   60.9496 C.2     1  ZINC000151850193    0.6500
     15 O15       -12.1425   -0.8409   60.3548 O.2     1  ZINC000151850193   -0.5600
     16 O16       -10.7301    0.4893   61.4322 O.3     1  ZINC000151850193   -0.3700
     17 C17       -11.0065    0.7472   62.8341 C.3     1  ZINC000151850193    0.1400
     18 C18        -9.8500    0.2218   63.6870 C.3     1  ZINC000151850193   -0.1800
     19 C19       -11.1597    2.2534   63.0550 C.3     1  ZINC000151850193   -0.1400
     20 C20       -12.3009    0.0382   63.2376 C.3     1  ZINC000151850193   -0.1800
     21 C21       -11.9717   -2.8637   55.1017 C.3     1  ZINC000151850193   -0.1700
     22 C22       -13.2195   -2.2179   55.7268 C.3     1  ZINC000151850193    0.0700
     23 H23       -14.0020   -1.9895   55.0031 H       1  ZINC000151850193    0.0800
     24 O24       -12.9235   -1.1179   56.5896 O.3     1  ZINC000151850193   -0.3700
     25 C25       -13.1646    0.1625   56.0027 C.3     1  ZINC000151850193    0.0300
     26 H26       -13.4059   -6.2820   56.6306 H       1  ZINC000151850193    0.0600
     27 H27       -14.8410   -5.6409   57.4660 H       1  ZINC000151850193    0.0600
     28 H28       -15.0282   -6.5585   55.9523 H       1  ZINC000151850193    0.0600
     29 H29       -13.8118   -4.7595   54.7311 H       1  ZINC000151850193    0.0700
     30 H30       -15.2794   -4.1406   55.5257 H       1  ZINC000151850193    0.0700
     31 H31       -13.7861   -4.3084   58.4555 H       1  ZINC000151850193    0.0700
     32 H32       -13.3095   -2.5943   58.3996 H       1  ZINC000151850193    0.0700
     33 H33       -15.4894   -1.9831   57.4537 H       1  ZINC000151850193    0.0500
     34 H34       -15.9668   -3.6964   57.3819 H       1  ZINC000151850193    0.0500
     35 H35       -15.7334   -2.9027   58.9580 H       1  ZINC000151850193    0.0500
     36 H36       -11.0625   -2.2671   57.5536 H       1  ZINC000151850193    0.4100
     37 H37        -9.0313   -4.2403   59.8216 H       1  ZINC000151850193    0.1000
     38 H38        -9.1875   -2.6108   59.1226 H       1  ZINC000151850193    0.1000
     39 H39       -11.6996   -3.0408   60.2277 H       1  ZINC000151850193    0.0800
     40 H40       -10.6185   -3.8328   61.3992 H       1  ZINC000151850193    0.0800
     41 H41        -9.4440   -1.6794   61.6000 H       1  ZINC000151850193    0.4100
     42 H42        -8.9278    0.7269   63.3995 H       1  ZINC000151850193    0.0600
     43 H43       -10.0575    0.4154   64.7393 H       1  ZINC000151850193    0.0700
     44 H44        -9.7408   -0.8513   63.5296 H       1  ZINC000151850193    0.0900
     45 H45       -11.9837    2.6277   62.4474 H       1  ZINC000151850193    0.0700
     46 H46       -11.3673    2.4471   64.1074 H       1  ZINC000151850193    0.0800
     47 H47       -10.2377    2.7585   62.7675 H       1  ZINC000151850193    0.0700
     48 H48       -12.1917   -1.0347   63.0802 H       1  ZINC000151850193    0.0900
     49 H49       -12.5084    0.2318   64.2900 H       1  ZINC000151850193    0.0700
     50 H50       -13.1248    0.4126   62.6300 H       1  ZINC000151850193    0.0600
     51 H51       -11.1208   -2.1866   55.0266 H       1  ZINC000151850193    0.0800
     52 H52       -12.1744   -3.3952   54.1720 H       1  ZINC000151850193    0.1000
     53 H53       -12.5460    0.2764   55.1125 H       1  ZINC000151850193    0.0400
     54 H54       -14.2161    0.2437   55.7271 H       1  ZINC000151850193    0.0400
     55 H55       -12.9157    0.9440   56.7206 H       1  ZINC000151850193    0.0900
@<TRIPOS>BOND
     1     1     2    1
     2     1    26    1
     3     1    27    1
     4     1    28    1
     5     2     3    1
     6     2    29    1
     7     2    30    1
     8     3    22    1
     9     3     4    1
    10     3     6    1
    11     4     5    1
    12     4    31    1
    13     4    32    1
    14     5    33    1
    15     5    34    1
    16     5    35    1
    17     6     7    1
    18     6     8    1
    19     6    21    1
    20     8     9   am
    21     8    36    1
    22     9    10    2
    23     9    11    1
    24    11    12    1
    25    11    37    1
    26    11    38    1
    27    12    13    1
    28    12    39    1
    29    12    40    1
    30    13    14   am
    31    13    41    1
    32    14    15    2
    33    14    16    1
    34    16    17    1
    35    17    18    1
    36    17    19    1
    37    17    20    1
    38    18    42    1
    39    18    43    1
    40    18    44    1
    41    19    45    1
    42    19    46    1
    43    19    47    1
    44    20    48    1
    45    20    49    1
    46    20    50    1
    47    21    22    1
    48    21    51    1
    49    21    52    1
    50    22    23    1
    51    22    24    1
    52    24    25    1
    53    25    53    1
    54    25    54    1
    55    25    55    1
@<TRIPOS>SUBSTRUCTURE
     1 ZINC000151850193        1 TEMP              0 ****  ****    0 ROOT


##########                                Name:    ZINC000866034032
##########                DOCK_Rotatable_Bonds:                   4
##########                         Heavy_Atoms:                  23
##########                    Molecular_Weight:             383.242
##########                DOCK_Rotatable_Bonds:                   4
##########                       Formal_Charge:           0.0199999
##########                     HBond_Acceptors:                   6
##########                        HBond_Donors:                   1
##########                         Heavy_Atoms:                  23
##########                          Grid_Score:          -33.414146
##########                     Grid_vdw_energy:          -32.586601
##########                      Grid_es_energy:           -0.827546
##########           Internal_energy_repulsive:           12.215563

@<TRIPOS>MOLECULE
ZINC000866034032
 42 44 1 0 0
SMALL
USER_CHARGES


@<TRIPOS>ATOM
      1 C1         -9.6841   -2.0541   61.0277 C.3     1  ZINC000866034032   -0.1300
      2 C2        -10.6824   -1.7738   59.9026 C.3     1  ZINC000866034032   -0.0800
      3 C3        -11.3566   -0.4068   60.0356 C.3     1  ZINC000866034032   -0.1300
      4 C4        -10.1187   -2.0479   58.4998 C.3     1  ZINC000866034032    0.1400
      5 H5         -9.0317   -1.9858   58.4477 H       1  ZINC000866034032    0.1100
      6 N6        -10.7823   -1.2810   57.4426 N.am    1  ZINC000866034032   -0.7000
      7 C7        -10.1107   -0.3110   56.7911 C.2     1  ZINC000866034032    0.5100
      8 O8         -8.9576   -0.0720   57.0809 O.2     1  ZINC000866034032   -0.5300
      9 C9        -10.7927    0.4768   55.7024 C.3     1  ZINC000866034032   -0.1100
     10 C10        -9.7943    0.8130   54.6247 C.ar    1  ZINC000866034032   -0.0500
     11 C11        -9.1740    2.0482   54.6186 C.ar    1  ZINC000866034032   -0.0500
     12 C12        -8.2584    2.3572   53.6301 C.ar    1  ZINC000866034032   -0.0900
     13 C13        -7.9628    1.4300   52.6474 C.ar    1  ZINC000866034032   -0.0500
     14 Br14       -6.7100    1.8518   51.2952 Br      1  ZINC000866034032    0.0200
     15 C15        -8.5836    0.1937   52.6541 C.ar    1  ZINC000866034032   -0.0200
     16 N16        -8.2673   -0.7991   51.6030 N.pl3   1  ZINC000866034032    0.0200
     17 O17        -8.8139   -1.8876   51.6092 O.2     1  ZINC000866034032   -0.1600
     18 O18        -7.4603   -0.5277   50.7319 O.2     1  ZINC000866034032   -0.1300
     19 C19        -9.4949   -0.1163   53.6458 C.ar    1  ZINC000866034032   -0.0300
     20 C20       -10.6454   -3.4855   58.6404 C.3     1  ZINC000866034032   -0.1500
     21 H21        -9.9365   -4.2270   59.0086 H       1  ZINC000866034032    0.1200
     22 C22       -11.5019   -3.9315   57.4344 C.3     1  ZINC000866034032   -0.1400
     23 C23       -12.9492   -3.5924   57.8535 C.3     1  ZINC000866034032    0.0500
     24 O24       -12.8126   -2.5425   58.8355 O.3     1  ZINC000866034032   -0.3600
     25 C25       -11.6704   -2.9239   59.6588 C.3     1  ZINC000866034032    0.0600
     26 H26       -11.9117   -3.5542   60.5147 H       1  ZINC000866034032    0.1000
     27 H27        -9.3513   -3.0904   60.9684 H       1  ZINC000866034032    0.0600
     28 H28        -8.8256   -1.3903   60.9255 H       1  ZINC000866034032    0.0700
     29 H29       -10.1642   -1.8813   61.9909 H       1  ZINC000866034032    0.0700
     30 H30       -10.6269    0.3788   59.8400 H       1  ZINC000866034032    0.0600
     31 H31       -12.1721   -0.3324   59.3161 H       1  ZINC000866034032    0.0600
     32 H32       -11.7513   -0.2930   61.0452 H       1  ZINC000866034032    0.0600
     33 H33       -11.7050   -1.4712   57.2116 H       1  ZINC000866034032    0.4100
     34 H34       -11.6012   -0.1172   55.2760 H       1  ZINC000866034032    0.1100
     35 H35       -11.1998    1.3975   56.1205 H       1  ZINC000866034032    0.1200
     36 H36        -9.4050    2.7722   55.3860 H       1  ZINC000866034032    0.1500
     37 H37        -7.7743    3.3226   53.6249 H       1  ZINC000866034032    0.1600
     38 H38        -9.9793   -1.0816   53.6514 H       1  ZINC000866034032    0.1600
     39 H39       -11.2226   -3.3734   56.5407 H       1  ZINC000866034032    0.0800
     40 H40       -11.3945   -5.0030   57.2654 H       1  ZINC000866034032    0.0800
     41 H41       -13.5195   -3.2372   56.9953 H       1  ZINC000866034032    0.0900
     42 H42       -13.4306   -4.4649   58.2954 H       1  ZINC000866034032    0.0600
@<TRIPOS>BOND
     1     1     2    1
     2     1    27    1
     3     1    28    1
     4     1    29    1
     5     2    25    1
     6     2     3    1
     7     2     4    1
     8     3    30    1
     9     3    31    1
    10     3    32    1
    11     4     5    1
    12     4     6    1
    13     4    20    1
    14     6     7   am
    15     6    33    1
    16     7     8    2
    17     7     9    1
    18     9    10    1
    19     9    34    1
    20     9    35    1
    21    10    19   ar
    22    10    11   ar
    23    11    12   ar
    24    11    36    1
    25    12    13   ar
    26    12    37    1
    27    13    14    1
    28    13    15   ar
    29    15    16    1
    30    15    19   ar
    31    16    17    2
    32    16    18    2
    33    19    38    1
    34    20    21    1
    35    20    25    1
    36    20    22    1
    37    22    23    1
    38    22    39    1
    39    22    40    1
    40    23    24    1
    41    23    41    1
    42    23    42    1
    43    24    25    1
    44    25    26    1
@<TRIPOS>SUBSTRUCTURE
     1 ZINC000866034032        1 TEMP              0 ****  ****    0 ROOT


##########                                Name:    ZINC000790735374
##########                DOCK_Rotatable_Bonds:                   5
##########                         Heavy_Atoms:                  25
##########                    Molecular_Weight:             353.445
##########                DOCK_Rotatable_Bonds:                   5
##########                       Formal_Charge:                   0
##########                     HBond_Acceptors:                   6
##########                        HBond_Donors:                   1
##########                         Heavy_Atoms:                  25
##########                          Grid_Score:          -33.412285
##########                     Grid_vdw_energy:          -32.813423
##########                      Grid_es_energy:           -0.598863
##########           Internal_energy_repulsive:            8.157193

@<TRIPOS>MOLECULE
ZINC000790735374
 44 47 1 0 0
SMALL
USER_CHARGES


@<TRIPOS>ATOM
      1 O1         -8.6012   -1.9942   51.6029 O.2     1  ZINC000790735374   -0.5100
      2 C2         -9.1944   -1.0957   52.1612 C.2     1  ZINC000790735374    0.5000
      3 N3         -8.7673    0.1761   52.0321 N.am    1  ZINC000790735374   -0.7200
      4 C4         -7.5829    0.4724   51.2224 C.3     1  ZINC000790735374    0.1400
      5 C5         -7.1669    1.9284   51.4408 C.3     1  ZINC000790735374   -0.0300
      6 H6         -7.6475    2.5569   50.6910 H       1  ZINC000790735374    0.1100
      7 S7         -7.6904    2.4601   53.0935 S.3     1  ZINC000790735374   -0.2400
      8 C8         -6.7418    4.0036   53.2736 C.3     1  ZINC000790735374   -0.0800
      9 C9         -5.2638    3.6424   53.2696 C.3     1  ZINC000790735374   -0.0800
     10 C10        -4.8517    2.8121   52.0874 C.ar    1  ZINC000790735374   -0.0700
     11 C11        -3.4833    2.8526   51.7993 C.ar    1  ZINC000790735374   -0.1200
     12 C12        -2.9465    2.1337   50.7574 C.ar    1  ZINC000790735374   -0.1100
     13 C13        -3.7727    1.3489   49.9745 C.ar    1  ZINC000790735374   -0.1200
     14 C14        -5.1207    1.3093   50.2487 C.ar    1  ZINC000790735374   -0.1100
     15 C15        -5.6690    2.0453   51.3042 C.ar    1  ZINC000790735374   -0.0800
     16 C16       -10.4128   -1.4005   52.9942 C.3     1  ZINC000790735374    0.0300
     17 H17       -10.1788   -1.3487   54.0575 H       1  ZINC000790735374    0.1500
     18 C18       -11.5800   -0.4495   52.6370 C.3     1  ZINC000790735374   -0.1400
     19 C19       -12.3501   -1.2473   51.6018 C.2     1  ZINC000790735374    0.1200
     20 C20       -13.3744   -0.7115   50.6833 C.ar    1  ZINC000790735374   -0.1000
     21 C21       -13.7434    0.6379   50.7376 C.ar    1  ZINC000790735374   -0.0400
     22 C22       -14.7081    1.0901   49.8543 C.ar    1  ZINC000790735374   -0.1700
     23 C23       -15.2715    0.2032   48.9549 C.ar    1  ZINC000790735374    0.1200
     24 N24       -14.9043   -1.0637   48.9262 N.ar    1  ZINC000790735374   -0.4800
     25 C25       -13.9874   -1.5406   49.7420 C.ar    1  ZINC000790735374    0.1400
     26 N26       -11.9561   -2.4750   51.6620 N.2     1  ZINC000790735374   -0.2700
     27 O27       -10.9651   -2.6871   52.6492 O.3     1  ZINC000790735374   -0.1600
     28 H28        -9.2440    0.8952   52.4754 H       1  ZINC000790735374    0.4100
     29 H29        -6.7667   -0.1869   51.5177 H       1  ZINC000790735374    0.0800
     30 H30        -7.8143    0.3147   50.1689 H       1  ZINC000790735374    0.0900
     31 H31        -6.9612    4.6714   52.4406 H       1  ZINC000790735374    0.0900
     32 H32        -7.0009    4.4886   54.2148 H       1  ZINC000790735374    0.1100
     33 H33        -4.6799    4.5628   53.2700 H       1  ZINC000790735374    0.0900
     34 H34        -5.0376    3.0886   54.1807 H       1  ZINC000790735374    0.0900
     35 H35        -2.8335    3.4627   52.4092 H       1  ZINC000790735374    0.1200
     36 H36        -1.8874    2.1819   50.5518 H       1  ZINC000790735374    0.1300
     37 H37        -3.3648    0.7736   49.1565 H       1  ZINC000790735374    0.1300
     38 H38        -5.7669    0.6960   49.6385 H       1  ZINC000790735374    0.1300
     39 H39       -12.1992   -0.2512   53.5118 H       1  ZINC000790735374    0.1200
     40 H40       -11.2047    0.4799   52.2085 H       1  ZINC000790735374    0.1100
     41 H41       -13.2873    1.3087   51.4506 H       1  ZINC000790735374    0.1500
     42 H42       -15.0181    2.1245   49.8675 H       1  ZINC000790735374    0.1500
     43 H43       -16.0249    0.5535   48.2648 H       1  ZINC000790735374    0.1600
     44 H44       -13.7130   -2.5838   49.6880 H       1  ZINC000790735374    0.1600
@<TRIPOS>BOND
     1     1     2    2
     2     2     3   am
     3     2    16    1
     4     3     4    1
     5     3    28    1
     6     4     5    1
     7     4    29    1
     8     4    30    1
     9     5     6    1
    10     5    15    1
    11     5     7    1
    12     7     8    1
    13     8     9    1
    14     8    31    1
    15     8    32    1
    16     9    10    1
    17     9    33    1
    18     9    34    1
    19    10    15   ar
    20    10    11   ar
    21    11    12   ar
    22    11    35    1
    23    12    13   ar
    24    12    36    1
    25    13    14   ar
    26    13    37    1
    27    14    15   ar
    28    14    38    1
    29    16    17    1
    30    16    27    1
    31    16    18    1
    32    18    19    1
    33    18    39    1
    34    18    40    1
    35    19    20    1
    36    19    26    2
    37    20    25   ar
    38    20    21   ar
    39    21    22   ar
    40    21    41    1
    41    22    23   ar
    42    22    42    1
    43    23    24   ar
    44    23    43    1
    45    24    25   ar
    46    25    44    1
    47    26    27    1
@<TRIPOS>SUBSTRUCTURE
     1 ZINC000790735374        1 TEMP              0 ****  ****    0 ROOT


##########                                Name:    ZINC000962730513
##########                DOCK_Rotatable_Bonds:                   6
##########                         Heavy_Atoms:                  24
##########                    Molecular_Weight:             342.465
##########                DOCK_Rotatable_Bonds:                   6
##########                       Formal_Charge:         -0.00999998
##########                     HBond_Acceptors:                   6
##########                        HBond_Donors:                   1
##########                         Heavy_Atoms:                  24
##########                          Grid_Score:          -33.404572
##########                     Grid_vdw_energy:          -32.834930
##########                      Grid_es_energy:           -0.569640
##########           Internal_energy_repulsive:           16.338024

@<TRIPOS>MOLECULE
ZINC000962730513
 46 49 1 0 0
SMALL
USER_CHARGES


@<TRIPOS>ATOM
      1 C1        -12.8519    1.6176   52.3858 C.3     1  ZINC000962730513   -0.1400
      2 C2        -11.4883    0.9301   52.2912 C.3     1  ZINC000962730513   -0.0800
      3 C3        -11.6750   -0.5646   52.3384 C.2     1  ZINC000962730513   -0.0100
      4 C4        -10.6532   -1.4551   52.1648 C.2     1  ZINC000962730513   -0.2800
      5 C5         -9.2526   -1.1037   51.9127 C.2     1  ZINC000962730513    0.6000
      6 O6         -8.4679   -1.9576   51.5435 O.2     1  ZINC000962730513   -0.5200
      7 N7         -8.8339    0.1650   52.0897 N.am    1  ZINC000962730513   -0.7000
      8 C8         -7.4336    0.5159   51.8394 C.3     1  ZINC000962730513    0.1200
      9 H9         -6.6962   -0.0954   52.3595 H       1  ZINC000962730513    0.1400
     10 C10        -7.1036    1.9955   51.6329 C.3     1  ZINC000962730513   -0.1700
     11 H11        -7.8904    2.7419   51.7426 H       1  ZINC000962730513    0.1200
     12 C12        -5.6465    2.4542   51.8558 C.3     1  ZINC000962730513    0.0700
     13 N13        -4.9824    2.2420   50.5440 N.3     1  ZINC000962730513   -0.5000
     14 C14        -3.5244    2.1524   50.7002 C.3     1  ZINC000962730513    0.1100
     15 C15        -2.8831    1.9897   49.3463 C.ar    1  ZINC000962730513    0.3200
     16 N16        -1.6902    1.4355   49.2641 N.ar    1  ZINC000962730513   -0.5100
     17 C17        -1.0959    1.2762   48.0924 C.ar    1  ZINC000962730513    0.1500
     18 C18        -1.7451    1.7011   46.9440 C.ar    1  ZINC000962730513   -0.1900
     19 C19        -1.1040    1.5380   45.5900 C.3     1  ZINC000962730513   -0.1100
     20 C20        -2.9984    2.2793   47.0707 C.ar    1  ZINC000962730513    0.1500
     21 N21        -3.5323    2.4007   48.2755 N.ar    1  ZINC000962730513   -0.5000
     22 C22        -5.5451    0.9575   50.0535 C.3     1  ZINC000962730513    0.0700
     23 C23        -7.0721    1.0193   50.4406 C.3     1  ZINC000962730513   -0.1700
     24 H24        -7.7987    1.0389   49.6284 H       1  ZINC000962730513    0.1300
     25 S25       -11.2875   -3.0900   52.2928 S.3     1  ZINC000962730513    0.1900
     26 C26       -12.8667   -2.5058   52.5684 C.2     1  ZINC000962730513   -0.2200
     27 C27       -12.8891   -1.1677   52.5660 C.2     1  ZINC000962730513   -0.1500
     28 H28       -13.4762    1.3030   51.5495 H       1  ZINC000962730513    0.0600
     29 H29       -13.3340    1.3411   53.3233 H       1  ZINC000962730513    0.0500
     30 H30       -12.7168    2.6987   52.3517 H       1  ZINC000962730513    0.0600
     31 H31       -11.0062    1.2067   51.3536 H       1  ZINC000962730513    0.1000
     32 H32       -10.8640    1.2448   53.1274 H       1  ZINC000962730513    0.0700
     33 H33        -9.4595    0.8458   52.3828 H       1  ZINC000962730513    0.4000
     34 H34        -5.6176    3.5086   52.1303 H       1  ZINC000962730513    0.0900
     35 H35        -5.1703    1.8469   52.6255 H       1  ZINC000962730513    0.0500
     36 H36        -3.1529    3.0625   51.1713 H       1  ZINC000962730513    0.1000
     37 H37        -3.2781    1.2935   51.3246 H       1  ZINC000962730513    0.0700
     38 H38        -0.1182    0.8215   48.0320 H       1  ZINC000962730513    0.1700
     39 H39        -1.3863    0.5734   45.1681 H       1  ZINC000962730513    0.0800
     40 H40        -1.4420    2.3364   44.9294 H       1  ZINC000962730513    0.0700
     41 H41        -0.0200    1.5862   45.6931 H       1  ZINC000962730513    0.0700
     42 H42        -3.5336    2.6225   46.1978 H       1  ZINC000962730513    0.1700
     43 H43        -5.4400    0.8852   48.9710 H       1  ZINC000962730513    0.0800
     44 H44        -5.0531    0.1161   50.5412 H       1  ZINC000962730513    0.0600
     45 H45       -13.7319   -3.1321   52.7277 H       1  ZINC000962730513    0.1700
     46 H46       -13.7963   -0.6032   52.7232 H       1  ZINC000962730513    0.1500
@<TRIPOS>BOND
     1     1     2    1
     2     1    28    1
     3     1    29    1
     4     1    30    1
     5     2     3    1
     6     2    31    1
     7     2    32    1
     8     3    27    1
     9     3     4    2
    10     4     5    1
    11     4    25    1
    12     5     6    2
    13     5     7   am
    14     7     8    1
    15     7    33    1
    16     8     9    1
    17     8    23    1
    18     8    10    1
    19    10    11    1
    20    10    23    1
    21    10    12    1
    22    12    13    1
    23    12    34    1
    24    12    35    1
    25    13    14    1
    26    13    22    1
    27    14    15    1
    28    14    36    1
    29    14    37    1
    30    15    21   ar
    31    15    16   ar
    32    16    17   ar
    33    17    18   ar
    34    17    38    1
    35    18    19    1
    36    18    20   ar
    37    19    39    1
    38    19    40    1
    39    19    41    1
    40    20    21   ar
    41    20    42    1
    42    22    23    1
    43    22    43    1
    44    22    44    1
    45    23    24    1
    46    25    26    1
    47    26    27    2
    48    26    45    1
    49    27    46    1
@<TRIPOS>SUBSTRUCTURE
     1 ZINC000962730513        1 TEMP              0 ****  ****    0 ROOT


##########                                Name:    ZINC000951315041
##########                DOCK_Rotatable_Bonds:                   5
##########                         Heavy_Atoms:                  25
##########                    Molecular_Weight:             340.382
##########                DOCK_Rotatable_Bonds:                   5
##########                       Formal_Charge:          0.00999974
##########                     HBond_Acceptors:                   7
##########                        HBond_Donors:                   1
##########                         Heavy_Atoms:                  25
##########                          Grid_Score:          -33.395874
##########                     Grid_vdw_energy:          -33.599472
##########                      Grid_es_energy:            0.203597
##########           Internal_energy_repulsive:           23.782286

@<TRIPOS>MOLECULE
ZINC000951315041
 45 47 1 0 0
SMALL
USER_CHARGES


@<TRIPOS>ATOM
      1 C1        -10.4532   -2.4277   59.9434 C.3     1  ZINC000951315041    0.0500
      2 N2        -11.0125   -3.3691   58.9703 N.am    1  ZINC000951315041   -0.4900
      3 C3        -12.1270   -3.0371   58.2925 C.2     1  ZINC000951315041    0.1700
      4 C4        -12.6714   -3.9087   57.3715 C.2     1  ZINC000951315041   -0.2400
      5 C5        -13.8925   -3.5404   56.6315 C.2     1  ZINC000951315041    0.5800
      6 O6        -14.9846   -3.8492   57.0683 O.2     1  ZINC000951315041   -0.5200
      7 N7        -13.7983   -2.8616   55.4710 N.am    1  ZINC000951315041   -0.6000
      8 C8        -15.0059   -2.4876   54.7223 C.3     1  ZINC000951315041    0.1100
      9 C9        -14.8713   -2.9961   53.2836 C.3     1  ZINC000951315041   -0.1300
     10 C10       -13.5683   -2.4672   52.6796 C.3     1  ZINC000951315041   -0.1300
     11 C11       -12.3797   -2.9896   53.4898 C.3     1  ZINC000951315041    0.1300
     12 H12       -12.3884   -4.0795   53.4870 H       1  ZINC000951315041    0.1000
     13 N13       -11.1316   -2.5091   52.8918 N.am    1  ZINC000951315041   -0.7200
     14 C14       -10.8930   -1.1856   52.8023 C.2     1  ZINC000951315041    0.5700
     15 O15       -11.7141   -0.3908   53.2164 O.2     1  ZINC000951315041   -0.5200
     16 C16        -9.6327   -0.7007   52.2005 C.ar    1  ZINC000951315041   -0.1900
     17 C17        -9.3580    0.6702   52.1318 C.ar    1  ZINC000951315041   -0.0100
     18 C18        -8.1638    1.0720   51.5593 C.ar    1  ZINC000951315041   -0.1800
     19 C19        -7.2883    0.1157   51.0779 C.ar    1  ZINC000951315041    0.1300
     20 N20        -7.5740   -1.1702   51.1558 N.ar    1  ZINC000951315041   -0.4900
     21 C21        -8.6941   -1.6022   51.6966 C.ar    1  ZINC000951315041    0.1400
     22 C22       -12.4863   -2.4760   54.9337 C.3     1  ZINC000951315041    0.1000
     23 C23       -12.0481   -5.1593   57.1422 C.2     1  ZINC000951315041    0.0100
     24 C24       -10.9229   -5.4726   57.8384 C.2     1  ZINC000951315041   -0.2300
     25 C25       -10.4010   -4.5497   58.7641 C.2     1  ZINC000951315041    0.5100
     26 O26        -9.3917   -4.8259   59.3907 O.2     1  ZINC000951315041   -0.5400
     27 H27        -9.5560   -2.8567   60.3897 H       1  ZINC000951315041    0.1100
     28 H28       -10.1983   -1.4945   59.4410 H       1  ZINC000951315041    0.0800
     29 H29       -11.1888   -2.2314   60.7233 H       1  ZINC000951315041    0.0800
     30 H30       -12.5986   -2.0821   58.4710 H       1  ZINC000951315041    0.1700
     31 H31       -15.8804   -2.9403   55.1896 H       1  ZINC000951315041    0.1000
     32 H32       -15.1119   -1.4027   54.7181 H       1  ZINC000951315041    0.0700
     33 H33       -14.8566   -4.0860   53.2828 H       1  ZINC000951315041    0.0700
     34 H34       -15.7161   -2.6428   52.6923 H       1  ZINC000951315041    0.0900
     35 H35       -13.4821   -2.8075   51.6477 H       1  ZINC000951315041    0.0800
     36 H36       -13.5731   -1.3774   52.7033 H       1  ZINC000951315041    0.0700
     37 H37       -10.4768   -3.1434   52.5603 H       1  ZINC000951315041    0.4000
     38 H38       -10.0602    1.3957   52.5154 H       1  ZINC000951315041    0.1500
     39 H39        -7.9184    2.1214   51.4888 H       1  ZINC000951315041    0.1500
     40 H40        -6.3557    0.4264   50.6306 H       1  ZINC000951315041    0.1600
     41 H41        -8.8922   -2.6630   51.7423 H       1  ZINC000951315041    0.1600
     42 H42       -12.3858   -1.3907   54.9440 H       1  ZINC000951315041    0.0700
     43 H43       -11.6987   -2.9237   55.5399 H       1  ZINC000951315041    0.0900
     44 H44       -12.4605   -5.8540   56.4255 H       1  ZINC000951315041    0.1400
     45 H45       -10.4314   -6.4212   57.6796 H       1  ZINC000951315041    0.1600
@<TRIPOS>BOND
     1     1     2    1
     2     1    27    1
     3     1    28    1
     4     1    29    1
     5     2    25   am
     6     2     3    1
     7     3     4    2
     8     3    30    1
     9     4     5    1
    10     4    23    1
    11     5     6    2
    12     5     7   am
    13     7    22    1
    14     7     8    1
    15     8     9    1
    16     8    31    1
    17     8    32    1
    18     9    10    1
    19     9    33    1
    20     9    34    1
    21    10    11    1
    22    10    35    1
    23    10    36    1
    24    11    12    1
    25    11    13    1
    26    11    22    1
    27    13    14   am
    28    13    37    1
    29    14    15    2
    30    14    16    1
    31    16    21   ar
    32    16    17   ar
    33    17    18   ar
    34    17    38    1
    35    18    19   ar
    36    18    39    1
    37    19    20   ar
    38    19    40    1
    39    20    21   ar
    40    21    41    1
    41    22    42    1
    42    22    43    1
    43    23    24    2
    44    23    44    1
    45    24    25    1
    46    24    45    1
    47    25    26    2
@<TRIPOS>SUBSTRUCTURE
     1 ZINC000951315041        1 TEMP              0 ****  ****    0 ROOT


##########                                Name:    ZINC000534799364
##########                DOCK_Rotatable_Bonds:                   4
##########                         Heavy_Atoms:                  29
##########                    Molecular_Weight:             391.491
##########                DOCK_Rotatable_Bonds:                   4
##########                       Formal_Charge:           0.0199998
##########                     HBond_Acceptors:                   6
##########                        HBond_Donors:                   0
##########                         Heavy_Atoms:                  29
##########                          Grid_Score:          -33.386677
##########                     Grid_vdw_energy:          -32.507744
##########                      Grid_es_energy:           -0.878934
##########           Internal_energy_repulsive:           11.393673

@<TRIPOS>MOLECULE
ZINC000534799364
 55 59 1 0 0
SMALL
USER_CHARGES


@<TRIPOS>ATOM
      1 C1        -15.3034   -2.2420   50.2036 C.3     1  ZINC000534799364   -0.1100
      2 C2        -14.4510   -1.0099   50.3657 C.ar    1  ZINC000534799364   -0.0200
      3 C3        -14.5680    0.0545   49.4873 C.ar    1  ZINC000534799364   -0.1700
      4 C4        -13.7696    1.1691   49.6665 C.ar    1  ZINC000534799364    0.1000
      5 N5        -12.9031    1.2296   50.6585 N.ar    1  ZINC000534799364   -0.4800
      6 C6        -12.7596    0.2395   51.5168 C.ar    1  ZINC000534799364    0.0800
      7 C7        -13.5299   -0.9109   51.4061 C.ar    1  ZINC000534799364    0.0300
      8 N8        -13.3754   -1.9580   52.3181 N.3     1  ZINC000534799364   -0.5000
      9 C9        -14.3088   -1.8174   53.4444 C.3     1  ZINC000534799364    0.0600
     10 C10       -14.1636   -3.0221   54.3772 C.3     1  ZINC000534799364    0.0600
     11 N11       -12.7760   -3.1048   54.8540 N.3     1  ZINC000534799364   -0.5300
     12 C12       -12.6136   -4.2058   55.8129 C.3     1  ZINC000534799364    0.1400
     13 C13       -12.7529   -3.6744   57.2161 C.2     1  ZINC000534799364    0.1100
     14 N14       -11.7955   -3.1468   57.9342 N.2     1  ZINC000534799364   -0.2800
     15 N15       -12.3304   -2.7789   59.1746 N.pl3   1  ZINC000534799364   -0.3100
     16 C16       -11.6292   -2.1784   60.2304 C.ar    1  ZINC000534799364    0.1500
     17 C17       -10.3923   -2.6772   60.6158 C.ar    1  ZINC000534799364   -0.1000
     18 C18        -9.7033   -2.0846   61.6557 C.ar    1  ZINC000534799364   -0.1300
     19 C19       -10.2456   -0.9935   62.3139 C.ar    1  ZINC000534799364    0.1000
     20 F20        -9.5700   -0.4149   63.3307 F       1  ZINC000534799364   -0.1300
     21 C21       -11.4794   -0.4946   61.9309 C.ar    1  ZINC000534799364   -0.1300
     22 C22       -12.1687   -1.0810   60.8876 C.ar    1  ZINC000534799364   -0.0800
     23 C23       -13.6453   -3.1055   59.1745 C.2     1  ZINC000534799364    0.0500
     24 C24       -13.9325   -3.6552   57.9738 C.2     1  ZINC000534799364   -0.2200
     25 C25       -15.3945   -4.0426   57.9116 C.3     1  ZINC000534799364   -0.0400
     26 C26       -15.8681   -4.0542   59.3814 C.3     1  ZINC000534799364   -0.1200
     27 C27       -14.8840   -3.0631   60.0426 C.3     1  ZINC000534799364   -0.0500
     28 C28       -11.8426   -3.2453   53.7276 C.3     1  ZINC000534799364    0.0600
     29 C29       -11.9878   -2.0406   52.7949 C.3     1  ZINC000534799364    0.0600
     30 H30       -16.1874   -2.1580   50.8358 H       1  ZINC000534799364    0.0800
     31 H31       -15.6095   -2.3377   49.1619 H       1  ZINC000534799364    0.0600
     32 H32       -14.7299   -3.1216   50.4960 H       1  ZINC000534799364    0.0800
     33 H33       -15.2745    0.0141   48.6714 H       1  ZINC000534799364    0.1400
     34 H34       -13.8566    2.0016   48.9840 H       1  ZINC000534799364    0.1600
     35 H35       -12.0390    0.3255   52.3166 H       1  ZINC000534799364    0.1500
     36 H36       -14.0817   -0.9033   53.9930 H       1  ZINC000534799364    0.0500
     37 H37       -15.3302   -1.7710   53.0666 H       1  ZINC000534799364    0.0800
     38 H38       -14.8344   -2.9059   55.2284 H       1  ZINC000534799364    0.0900
     39 H39       -14.4171   -3.9337   53.8360 H       1  ZINC000534799364    0.0500
     40 H40       -13.3789   -4.9606   55.6325 H       1  ZINC000534799364    0.1000
     41 H41       -11.6269   -4.6522   55.6897 H       1  ZINC000534799364    0.0500
     42 H42        -9.9693   -3.5283   60.1029 H       1  ZINC000534799364    0.1400
     43 H43        -8.7412   -2.4726   61.9560 H       1  ZINC000534799364    0.1500
     44 H44       -11.9010    0.3561   62.4457 H       1  ZINC000534799364    0.1500
     45 H45       -13.1307   -0.6915   60.5890 H       1  ZINC000534799364    0.1400
     46 H46       -15.9573   -3.3061   57.3380 H       1  ZINC000534799364    0.0800
     47 H47       -15.5054   -5.0329   57.4699 H       1  ZINC000534799364    0.0700
     48 H48       -16.8939   -3.6948   59.4628 H       1  ZINC000534799364    0.0800
     49 H49       -15.7705   -5.0499   59.8139 H       1  ZINC000534799364    0.0800
     50 H50       -14.6448   -3.3858   61.0559 H       1  ZINC000534799364    0.0800
     51 H51       -15.3080   -2.0590   60.0542 H       1  ZINC000534799364    0.0900
     52 H52       -10.8212   -3.2918   54.1054 H       1  ZINC000534799364    0.0900
     53 H53       -12.0697   -4.1594   53.1791 H       1  ZINC000534799364    0.0500
     54 H54       -11.3170   -2.1569   51.9436 H       1  ZINC000534799364    0.0800
     55 H55       -11.7344   -1.1291   53.3361 H       1  ZINC000534799364    0.0500
@<TRIPOS>BOND
     1     1     2    1
     2     1    30    1
     3     1    31    1
     4     1    32    1
     5     2     7   ar
     6     2     3   ar
     7     3     4   ar
     8     3    33    1
     9     4     5   ar
    10     4    34    1
    11     5     6   ar
    12     6     7   ar
    13     6    35    1
    14     7     8    1
    15     8    29    1
    16     8     9    1
    17     9    10    1
    18     9    36    1
    19     9    37    1
    20    10    11    1
    21    10    38    1
    22    10    39    1
    23    11    12    1
    24    11    28    1
    25    12    13    1
    26    12    40    1
    27    12    41    1
    28    13    24    1
    29    13    14    2
    30    14    15    1
    31    15    16    1
    32    15    23    1
    33    16    22   ar
    34    16    17   ar
    35    17    18   ar
    36    17    42    1
    37    18    19   ar
    38    18    43    1
    39    19    20    1
    40    19    21   ar
    41    21    22   ar
    42    21    44    1
    43    22    45    1
    44    23    27    1
    45    23    24    2
    46    24    25    1
    47    25    26    1
    48    25    46    1
    49    25    47    1
    50    26    27    1
    51    26    48    1
    52    26    49    1
    53    27    50    1
    54    27    51    1
    55    28    29    1
    56    28    52    1
    57    28    53    1
    58    29    54    1
    59    29    55    1
@<TRIPOS>SUBSTRUCTURE
     1 ZINC000534799364        1 TEMP              0 ****  ****    0 ROOT


##########                                Name:    ZINC001009984555
##########                DOCK_Rotatable_Bonds:                   7
##########                         Heavy_Atoms:                  23
##########                    Molecular_Weight:             338.446
##########                DOCK_Rotatable_Bonds:                   7
##########                       Formal_Charge:           0.0400002
##########                     HBond_Acceptors:                   6
##########                        HBond_Donors:                   1
##########                         Heavy_Atoms:                  23
##########                          Grid_Score:          -33.383575
##########                     Grid_vdw_energy:          -31.434582
##########                      Grid_es_energy:           -1.948992
##########           Internal_energy_repulsive:           11.478502

@<TRIPOS>MOLECULE
ZINC001009984555
 46 47 1 0 0
SMALL
USER_CHARGES


@<TRIPOS>ATOM
      1 C1        -14.2829   -6.2661   56.6220 C.3     1  ZINC001009984555   -0.1400
      2 S2        -14.1643   -4.8986   57.8079 S.3     1  ZINC001009984555   -0.1800
      3 C3        -13.2811   -3.6212   56.8705 C.3     1  ZINC001009984555   -0.1300
      4 C4        -11.8233   -3.6356   57.2522 C.2     1  ZINC001009984555    0.5500
      5 O5        -11.0940   -4.5068   56.8279 O.2     1  ZINC001009984555   -0.5100
      6 N6        -11.3300   -2.6803   58.0650 N.am    1  ZINC001009984555   -0.6100
      7 C7        -12.1022   -1.5725   58.6564 C.3     1  ZINC001009984555    0.1000
      8 C8        -11.3087   -1.1683   59.9239 C.3     1  ZINC001009984555   -0.1100
      9 H9        -11.5319   -1.8377   60.7547 H       1  ZINC001009984555    0.1000
     10 C10       -11.5885    0.2867   60.3053 C.3     1  ZINC001009984555    0.1300
     11 N11       -10.7201    0.6751   61.4195 N.am    1  ZINC001009984555   -0.7300
     12 C12       -11.0852    0.3975   62.6869 C.2     1  ZINC001009984555    0.5600
     13 O13       -12.1343   -0.1763   62.9053 O.2     1  ZINC001009984555   -0.5200
     14 C14       -10.2097    0.7909   63.8115 C.ar    1  ZINC001009984555   -0.1200
     15 C15        -9.4133   -0.1632   64.4462 C.ar    1  ZINC001009984555   -0.0900
     16 C16        -8.5980    0.2091   65.4953 C.ar    1  ZINC001009984555   -0.1000
     17 C17        -8.5683    1.5251   65.9195 C.ar    1  ZINC001009984555   -0.1200
     18 C18        -9.3563    2.4785   65.2943 C.ar    1  ZINC001009984555    0.0900
     19 F19        -9.3224    3.7622   65.7139 F       1  ZINC001009984555   -0.1300
     20 C20       -10.1721    2.1190   64.2387 C.ar    1  ZINC001009984555   -0.0500
     21 C21       -11.0288    3.1558   63.5589 C.3     1  ZINC001009984555   -0.1200
     22 C22        -9.8438   -1.3465   59.4443 C.3     1  ZINC001009984555   -0.1200
     23 C23        -9.9340   -2.5742   58.5138 C.3     1  ZINC001009984555    0.1400
     24 H24        -9.2822   -2.4343   57.6513 H       1  ZINC001009984555    0.0800
     25 C25        -9.5244   -3.8360   59.2759 C.3     1  ZINC001009984555   -0.1700
     26 H26       -13.2815   -6.5797   56.3276 H       1  ZINC001009984555    0.0800
     27 H27       -14.8047   -7.1039   57.0845 H       1  ZINC001009984555    0.1100
     28 H28       -14.8341   -5.9365   55.7413 H       1  ZINC001009984555    0.0800
     29 H29       -13.3792   -3.8204   55.8034 H       1  ZINC001009984555    0.1100
     30 H30       -13.7066   -2.6438   57.0983 H       1  ZINC001009984555    0.1100
     31 H31       -12.1581   -0.7352   57.9607 H       1  ZINC001009984555    0.0800
     32 H32       -13.1029   -1.9096   58.9268 H       1  ZINC001009984555    0.0800
     33 H33       -11.3907    0.9314   59.4488 H       1  ZINC001009984555    0.0800
     34 H34       -12.6315    0.3898   60.6045 H       1  ZINC001009984555    0.0800
     35 H35        -9.8824    1.1319   61.2451 H       1  ZINC001009984555    0.4000
     36 H36        -9.4354   -1.1917   64.1171 H       1  ZINC001009984555    0.1300
     37 H37        -7.9816   -0.5292   65.9867 H       1  ZINC001009984555    0.1400
     38 H38        -7.9288    1.8109   66.7416 H       1  ZINC001009984555    0.1400
     39 H39       -10.5207    3.5176   62.6650 H       1  ZINC001009984555    0.0800
     40 H40       -11.9839    2.7114   63.2791 H       1  ZINC001009984555    0.1000
     41 H41       -11.2014    3.9885   64.2408 H       1  ZINC001009984555    0.0600
     42 H42        -9.5078   -0.4664   58.8961 H       1  ZINC001009984555    0.0900
     43 H43        -9.1843   -1.5521   60.2875 H       1  ZINC001009984555    0.0900
     44 H44       -10.1912   -3.9794   60.1262 H       1  ZINC001009984555    0.0600
     45 H45        -9.5904   -4.6985   58.6128 H       1  ZINC001009984555    0.0700
     46 H46        -8.4997   -3.7289   59.6319 H       1  ZINC001009984555    0.0700
@<TRIPOS>BOND
     1     1     2    1
     2     1    26    1
     3     1    27    1
     4     1    28    1
     5     2     3    1
     6     3     4    1
     7     3    29    1
     8     3    30    1
     9     4     5    2
    10     4     6   am
    11     6    23    1
    12     6     7    1
    13     7     8    1
    14     7    31    1
    15     7    32    1
    16     8     9    1
    17     8    10    1
    18     8    22    1
    19    10    11    1
    20    10    33    1
    21    10    34    1
    22    11    12   am
    23    11    35    1
    24    12    13    2
    25    12    14    1
    26    14    20   ar
    27    14    15   ar
    28    15    16   ar
    29    15    36    1
    30    16    17   ar
    31    16    37    1
    32    17    18   ar
    33    17    38    1
    34    18    19    1
    35    18    20   ar
    36    20    21    1
    37    21    39    1
    38    21    40    1
    39    21    41    1
    40    22    23    1
    41    22    42    1
    42    22    43    1
    43    23    24    1
    44    23    25    1
    45    25    44    1
    46    25    45    1
    47    25    46    1
@<TRIPOS>SUBSTRUCTURE
     1 ZINC001009984555        1 TEMP              0 ****  ****    0 ROOT


##########                                Name:    ZINC000952280524
##########                DOCK_Rotatable_Bonds:                   9
##########                         Heavy_Atoms:                  25
##########                    Molecular_Weight:             348.486
##########                DOCK_Rotatable_Bonds:                   9
##########                       Formal_Charge:          -0.0100004
##########                     HBond_Acceptors:                   5
##########                        HBond_Donors:                   1
##########                         Heavy_Atoms:                  25
##########                          Grid_Score:          -33.366627
##########                     Grid_vdw_energy:          -33.370178
##########                      Grid_es_energy:            0.003552
##########           Internal_energy_repulsive:           22.331747

@<TRIPOS>MOLECULE
ZINC000952280524
 57 59 1 0 0
SMALL
USER_CHARGES


@<TRIPOS>ATOM
      1 C1        -13.2574    3.7650   65.0925 C.3     1  ZINC000952280524   -0.1800
      2 C2        -12.4199    2.5157   65.3734 C.3     1  ZINC000952280524    0.1400
      3 C3        -12.2257    2.3607   66.8830 C.3     1  ZINC000952280524   -0.1900
      4 O4        -13.0937    1.3651   64.8593 O.3     1  ZINC000952280524   -0.5500
      5 C5        -11.0555    2.6533   64.6950 C.3     1  ZINC000952280524   -0.1200
      6 C6        -10.5651    1.2923   64.2724 C.2     1  ZINC000952280524    0.5300
      7 O7        -10.0799    0.5413   65.0918 O.2     1  ZINC000952280524   -0.5100
      8 N8        -10.6658    0.9099   62.9840 N.am    1  ZINC000952280524   -0.6300
      9 C9        -11.2302    1.7168   61.8922 C.3     1  ZINC000952280524    0.1000
     10 C10       -11.1596    0.8637   60.6082 C.3     1  ZINC000952280524   -0.1300
     11 C11       -11.0797   -0.5852   61.1576 C.3     1  ZINC000952280524   -0.1000
     12 H12       -12.0713   -0.9647   61.4042 H       1  ZINC000952280524    0.0900
     13 C13       -10.3730   -1.5100   60.1645 C.3     1  ZINC000952280524   -0.0700
     14 C14       -10.4907   -2.9584   60.6442 C.3     1  ZINC000952280524   -0.1300
     15 C15        -9.7525   -3.8777   59.6660 C.3     1  ZINC000952280524    0.1100
     16 N16       -10.2758   -3.6459   58.3127 N.am    1  ZINC000952280524   -0.6100
     17 C17       -10.7317   -4.6723   57.5676 C.2     1  ZINC000952280524    0.5500
     18 O18       -10.7123   -5.8034   58.0140 O.2     1  ZINC000952280524   -0.5500
     19 C19       -11.2526   -4.4244   56.2145 C.2     1  ZINC000952280524   -0.2200
     20 C20       -12.5382   -4.6364   55.9477 C.2     1  ZINC000952280524   -0.0300
     21 C21       -13.4607   -5.1323   57.0312 C.3     1  ZINC000952280524   -0.1500
     22 C22       -14.9092   -4.6403   57.0056 C.3     1  ZINC000952280524   -0.1700
     23 C23       -14.5852   -6.0850   56.6202 C.3     1  ZINC000952280524   -0.1600
     24 C24       -10.2933   -2.2738   57.7875 C.3     1  ZINC000952280524    0.1000
     25 C25       -11.0253   -1.3726   58.7869 C.3     1  ZINC000952280524   -0.1300
     26 C26       -10.2224   -0.3844   62.4347 C.3     1  ZINC000952280524    0.1100
     27 H27       -12.7875    4.6301   65.5603 H       1  ZINC000952280524    0.0700
     28 H28       -13.3223    3.9245   64.0162 H       1  ZINC000952280524    0.0600
     29 H29       -14.2589    3.6304   65.5010 H       1  ZINC000952280524    0.0600
     30 H30       -13.1977    2.2627   67.3663 H       1  ZINC000952280524    0.0600
     31 H31       -11.6290    1.4707   67.0831 H       1  ZINC000952280524    0.0800
     32 H32       -11.7117    3.2384   67.2752 H       1  ZINC000952280524    0.0600
     33 H33       -12.6293    0.5325   65.0210 H       1  ZINC000952280524    0.3700
     34 H34       -11.1486    3.2942   63.8183 H       1  ZINC000952280524    0.1000
     35 H35       -10.3450    3.0945   65.3940 H       1  ZINC000952280524    0.1000
     36 H36       -12.2675    1.9672   62.1144 H       1  ZINC000952280524    0.0700
     37 H37       -10.6458    2.6280   61.7645 H       1  ZINC000952280524    0.0700
     38 H38       -12.0579    0.9987   60.0057 H       1  ZINC000952280524    0.0800
     39 H39       -10.2671    1.1074   60.0319 H       1  ZINC000952280524    0.0800
     40 H40        -9.3206   -1.2343   60.0971 H       1  ZINC000952280524    0.0800
     41 H41       -10.0467   -3.0506   61.6354 H       1  ZINC000952280524    0.0800
     42 H42       -11.5419   -3.2430   60.6881 H       1  ZINC000952280524    0.0700
     43 H43        -8.6859   -3.6542   59.6885 H       1  ZINC000952280524    0.0700
     44 H44        -9.9161   -4.9179   59.9478 H       1  ZINC000952280524    0.0900
     45 H45       -10.5912   -4.0702   55.4377 H       1  ZINC000952280524    0.1300
     46 H46       -12.9209   -4.4531   54.9546 H       1  ZINC000952280524    0.1300
     47 H47       -12.9993   -5.2893   58.0061 H       1  ZINC000952280524    0.1200
     48 H48       -15.4010   -4.4733   57.9639 H       1  ZINC000952280524    0.1000
     49 H49       -15.1948   -3.9578   56.2052 H       1  ZINC000952280524    0.1000
     50 H50       -14.6577   -6.3531   55.5661 H       1  ZINC000952280524    0.1000
     51 H51       -14.8638   -6.8685   57.3249 H       1  ZINC000952280524    0.1000
     52 H52        -9.2708   -1.9195   57.6569 H       1  ZINC000952280524    0.0700
     53 H53       -10.8137   -2.2557   56.8299 H       1  ZINC000952280524    0.0900
     54 H54       -12.0716   -1.6720   58.8482 H       1  ZINC000952280524    0.0700
     55 H55       -10.9619   -0.3359   58.4560 H       1  ZINC000952280524    0.0800
     56 H56        -9.1633   -0.3513   62.1794 H       1  ZINC000952280524    0.0700
     57 H57       -10.4160   -1.1829   63.1510 H       1  ZINC000952280524    0.0800
@<TRIPOS>BOND
     1     1     2    1
     2     1    27    1
     3     1    28    1
     4     1    29    1
     5     2     3    1
     6     2     4    1
     7     2     5    1
     8     3    30    1
     9     3    31    1
    10     3    32    1
    11     4    33    1
    12     5     6    1
    13     5    34    1
    14     5    35    1
    15     6     7    2
    16     6     8   am
    17     8    26    1
    18     8     9    1
    19     9    10    1
    20     9    36    1
    21     9    37    1
    22    10    11    1
    23    10    38    1
    24    10    39    1
    25    11    12    1
    26    11    13    1
    27    11    26    1
    28    13    25    1
    29    13    14    1
    30    13    40    1
    31    14    15    1
    32    14    41    1
    33    14    42    1
    34    15    16    1
    35    15    43    1
    36    15    44    1
    37    16    17   am
    38    16    24    1
    39    17    18    2
    40    17    19    1
    41    19    20    2
    42    19    45    1
    43    20    21    1
    44    20    46    1
    45    21    23    1
    46    21    22    1
    47    21    47    1
    48    22    23    1
    49    22    48    1
    50    22    49    1
    51    23    50    1
    52    23    51    1
    53    24    25    1
    54    24    52    1
    55    24    53    1
    56    25    54    1
    57    25    55    1
    58    26    56    1
    59    26    57    1
@<TRIPOS>SUBSTRUCTURE
     1 ZINC000952280524        1 TEMP              0 ****  ****    0 ROOT


##########                                Name:    ZINC001085711660
##########                DOCK_Rotatable_Bonds:                   8
##########                         Heavy_Atoms:                  25
##########                    Molecular_Weight:             347.414
##########                DOCK_Rotatable_Bonds:                   8
##########                       Formal_Charge:         -0.00999993
##########                     HBond_Acceptors:                   7
##########                        HBond_Donors:                   0
##########                         Heavy_Atoms:                  25
##########                          Grid_Score:          -33.352688
##########                     Grid_vdw_energy:          -32.007694
##########                      Grid_es_energy:           -1.344995
##########           Internal_energy_repulsive:           16.553410

@<TRIPOS>MOLECULE
ZINC001085711660
 50 52 1 0 0
SMALL
USER_CHARGES


@<TRIPOS>ATOM
      1 C1        -11.1623   -3.7058   52.9639 C.3     1  ZINC001085711660    0.0300
      2 O2        -12.5845   -3.7521   52.8323 O.3     1  ZINC001085711660   -0.3800
      3 C3        -13.2864   -3.0512   53.8611 C.3     1  ZINC001085711660    0.1400
      4 C4        -13.0355   -3.7220   55.1870 C.2     1  ZINC001085711660    0.0100
      5 C5        -13.8021   -4.6894   55.7370 C.2     1  ZINC001085711660   -0.1900
      6 C6        -13.2165   -5.0321   56.9658 C.2     1  ZINC001085711660   -0.1200
      7 C7        -12.1083   -4.2465   57.1050 C.2     1  ZINC001085711660   -0.0700
      8 C8        -11.1811   -4.2581   58.2411 C.2     1  ZINC001085711660    0.6000
      9 O9        -10.3714   -5.1593   58.3566 O.2     1  ZINC001085711660   -0.5200
     10 N10       -11.2256   -3.2706   59.1574 N.am    1  ZINC001085711660   -0.6000
     11 C11       -10.2992   -3.2821   60.2923 C.3     1  ZINC001085711660    0.0700
     12 C12       -12.2003   -2.1857   59.0184 C.3     1  ZINC001085711660    0.1300
     13 C13       -13.4384   -2.5018   59.8599 C.3     1  ZINC001085711660    0.0000
     14 H14       -13.2770   -3.3269   60.5537 H       1  ZINC001085711660    0.1000
     15 C15       -14.7222   -2.6426   59.0301 C.3     1  ZINC001085711660   -0.1400
     16 C16       -15.3625   -1.9025   60.2128 C.3     1  ZINC001085711660    0.0100
     17 N17       -14.0388   -1.3120   60.4916 N.3     1  ZINC001085711660   -0.4500
     18 C18       -13.7671   -1.2867   61.9350 C.3     1  ZINC001085711660    0.1500
     19 H19       -13.6407   -2.3064   62.2989 H       1  ZINC001085711660    0.1000
     20 C20       -14.9399   -0.6270   62.6633 C.3     1  ZINC001085711660   -0.1900
     21 C21       -12.5079   -0.5008   62.1954 C.2     1  ZINC001085711660    0.2000
     22 N22       -11.8359    0.1721   61.3053 N.2     1  ZINC001085711660   -0.4700
     23 C23       -10.7754    0.7412   61.9052 C.2     1  ZINC001085711660   -0.0400
     24 C24       -10.8094    0.3992   63.2037 C.2     1  ZINC001085711660   -0.0500
     25 C25        -9.8192    0.8085   64.2636 C.3     1  ZINC001085711660   -0.0700
     26 O26       -11.8985   -0.3743   63.3817 O.3     1  ZINC001085711660   -0.2000
     27 O27       -12.0130   -3.4615   56.0119 O.3     1  ZINC001085711660   -0.1500
     28 H28       -10.8280   -2.6689   52.9322 H       1  ZINC001085711660    0.0500
     29 H29       -10.8706   -4.1528   53.9143 H       1  ZINC001085711660    0.0500
     30 H30       -10.7035   -4.2607   52.1455 H       1  ZINC001085711660    0.0900
     31 H31       -12.9351   -2.0203   53.9032 H       1  ZINC001085711660    0.0900
     32 H32       -14.3546   -3.0625   53.6446 H       1  ZINC001085711660    0.0700
     33 H33       -14.6972   -5.1183   55.3111 H       1  ZINC001085711660    0.1600
     34 H34       -13.5733   -5.7733   57.6655 H       1  ZINC001085711660    0.1600
     35 H35        -9.3491   -2.8416   59.9903 H       1  ZINC001085711660    0.0600
     36 H36       -10.7232   -2.7039   61.1132 H       1  ZINC001085711660    0.0900
     37 H37       -10.1362   -4.3096   60.6177 H       1  ZINC001085711660    0.0800
     38 H38       -11.7559   -1.2518   59.3623 H       1  ZINC001085711660    0.0900
     39 H39       -12.4879   -2.0876   57.9716 H       1  ZINC001085711660    0.0900
     40 H40       -14.7163   -2.0757   58.0992 H       1  ZINC001085711660    0.1000
     41 H41       -15.0646   -3.6703   58.9085 H       1  ZINC001085711660    0.0800
     42 H42       -16.1111   -1.1694   59.9124 H       1  ZINC001085711660    0.0900
     43 H43       -15.7152   -2.5671   61.0014 H       1  ZINC001085711660    0.0800
     44 H44       -15.1359    0.3513   62.2247 H       1  ZINC001085711660    0.0800
     45 H45       -15.8266   -1.2532   62.5659 H       1  ZINC001085711660    0.0800
     46 H46       -14.6924   -0.5092   63.7183 H       1  ZINC001085711660    0.0700
     47 H47       -10.0305    1.3613   61.4287 H       1  ZINC001085711660    0.1800
     48 H48       -10.1445    1.7415   64.7237 H       1  ZINC001085711660    0.0800
     49 H49        -9.7585    0.0300   65.0241 H       1  ZINC001085711660    0.0800
     50 H50        -8.8386    0.9498   63.8093 H       1  ZINC001085711660    0.0900
@<TRIPOS>BOND
     1     1     2    1
     2     1    28    1
     3     1    29    1
     4     1    30    1
     5     2     3    1
     6     3     4    1
     7     3    31    1
     8     3    32    1
     9     4    27    1
    10     4     5    2
    11     5     6    1
    12     5    33    1
    13     6     7    2
    14     6    34    1
    15     7     8    1
    16     7    27    1
    17     8     9    2
    18     8    10   am
    19    10    11    1
    20    10    12    1
    21    11    35    1
    22    11    36    1
    23    11    37    1
    24    12    13    1
    25    12    38    1
    26    12    39    1
    27    13    14    1
    28    13    17    1
    29    13    15    1
    30    15    16    1
    31    15    40    1
    32    15    41    1
    33    16    17    1
    34    16    42    1
    35    16    43    1
    36    17    18    1
    37    18    19    1
    38    18    20    1
    39    18    21    1
    40    20    44    1
    41    20    45    1
    42    20    46    1
    43    21    26    1
    44    21    22    2
    45    22    23    1
    46    23    24    2
    47    23    47    1
    48    24    25    1
    49    24    26    1
    50    25    48    1
    51    25    49    1
    52    25    50    1
@<TRIPOS>SUBSTRUCTURE
     1 ZINC001085711660        1 TEMP              0 ****  ****    0 ROOT


##########                                Name:    ZINC001045463759
##########                DOCK_Rotatable_Bonds:                   6
##########                         Heavy_Atoms:                  24
##########                    Molecular_Weight:             336.385
##########                DOCK_Rotatable_Bonds:                   6
##########                       Formal_Charge:          1.3411e-07
##########                     HBond_Acceptors:                   7
##########                        HBond_Donors:                   2
##########                         Heavy_Atoms:                  24
##########                          Grid_Score:          -33.333244
##########                     Grid_vdw_energy:          -33.217072
##########                      Grid_es_energy:           -0.116172
##########           Internal_energy_repulsive:            9.892637

@<TRIPOS>MOLECULE
ZINC001045463759
 46 49 1 0 0
SMALL
USER_CHARGES


@<TRIPOS>ATOM
      1 O1        -11.3039   -3.8005   52.3914 O.2     1  ZINC001045463759   -0.5100
      2 C2        -11.4217   -2.7224   52.9344 C.2     1  ZINC001045463759    0.5400
      3 N3        -12.0645   -2.6293   54.1153 N.am    1  ZINC001045463759   -0.7200
      4 C4        -12.6264   -3.8294   54.7401 C.3     1  ZINC001045463759    0.1400
      5 H5        -12.0890   -4.7090   54.3856 H       1  ZINC001045463759    0.1000
      6 C6        -14.1058   -3.9522   54.3699 C.3     1  ZINC001045463759   -0.1300
      7 C7        -14.6925   -5.2055   55.0223 C.3     1  ZINC001045463759   -0.1200
      8 C8        -14.5541   -5.1015   56.5425 C.3     1  ZINC001045463759   -0.1200
      9 C9        -13.0747   -4.9788   56.9127 C.3     1  ZINC001045463759   -0.1300
     10 C10       -12.4879   -3.7255   56.2602 C.3     1  ZINC001045463759    0.1500
     11 H11       -13.0254   -2.8459   56.6146 H       1  ZINC001045463759    0.0900
     12 N12       -11.0714   -3.6079   56.6148 N.pl3   1  ZINC001045463759   -0.7100
     13 C13       -10.7074   -3.1835   57.8823 C.ar    1  ZINC001045463759    0.4400
     14 C14       -10.2130   -4.0923   58.8199 C.ar    1  ZINC001045463759   -0.3000
     15 C15        -9.8640   -3.6199   60.0699 C.ar    1  ZINC001045463759    0.1800
     16 N16       -10.0084   -2.3297   60.3371 N.ar    1  ZINC001045463759   -0.5600
     17 C17       -10.4781   -1.4970   59.4302 C.ar    1  ZINC001045463759    0.4000
     18 C18       -10.6244   -0.0385   59.7805 C.3     1  ZINC001045463759   -0.1100
     19 C19       -11.9365    0.4033   60.4319 C.3     1  ZINC001045463759   -0.1500
     20 C20       -10.6550    0.3318   61.2647 C.3     1  ZINC001045463759   -0.1500
     21 N21       -10.8182   -1.9029   58.2238 N.ar    1  ZINC001045463759   -0.5700
     22 C22       -10.8438   -1.4878   52.2917 C.3     1  ZINC001045463759   -0.2000
     23 H23       -10.2540   -1.6589   51.3911 H       1  ZINC001045463759    0.1500
     24 C24       -11.6705   -0.2023   52.3613 C.3     1  ZINC001045463759   -0.1500
     25 C25       -10.4085   -0.3484   53.2154 C.3     1  ZINC001045463759    0.2300
     26 F26       -10.5780   -0.5321   54.5919 F       1  ZINC001045463759   -0.1400
     27 F27        -9.2844    0.3946   52.8394 F       1  ZINC001045463759   -0.1500
     28 H28       -12.1553   -1.7677   54.5515 H       1  ZINC001045463759    0.4000
     29 H29       -14.6432   -3.0726   54.7242 H       1  ZINC001045463759    0.0700
     30 H30       -14.2044   -4.0263   53.2868 H       1  ZINC001045463759    0.0800
     31 H31       -15.7465   -5.2931   54.7586 H       1  ZINC001045463759    0.0700
     32 H32       -14.1551   -6.0851   54.6679 H       1  ZINC001045463759    0.0700
     33 H33       -15.0915   -4.2220   56.8969 H       1  ZINC001045463759    0.0700
     34 H34       -14.9721   -5.9945   57.0073 H       1  ZINC001045463759    0.0700
     35 H35       -12.9760   -4.9047   57.9957 H       1  ZINC001045463759    0.0700
     36 H36       -12.5373   -5.8584   56.5583 H       1  ZINC001045463759    0.0700
     37 H37       -10.3882   -3.8272   55.9620 H       1  ZINC001045463759    0.4100
     38 H38       -10.1066   -5.1386   58.5739 H       1  ZINC001045463759    0.1400
     39 H39        -9.4785   -4.2937   60.8208 H       1  ZINC001045463759    0.1700
     40 H40       -10.1411    0.6599   59.0974 H       1  ZINC001045463759    0.1300
     41 H41       -12.3167    1.3926   60.1772 H       1  ZINC001045463759    0.1000
     42 H42       -12.6938   -0.3609   60.6069 H       1  ZINC001045463759    0.1100
     43 H43       -10.5693   -0.4794   61.9877 H       1  ZINC001045463759    0.1000
     44 H44       -10.1922    1.2740   61.5580 H       1  ZINC001045463759    0.1000
     45 H45       -11.6242    0.4726   51.5066 H       1  ZINC001045463759    0.1400
     46 H46       -12.6323   -0.2494   52.8719 H       1  ZINC001045463759    0.1300
@<TRIPOS>BOND
     1     1     2    2
     2     2     3   am
     3     2    22    1
     4     3     4    1
     5     3    28    1
     6     4     5    1
     7     4    10    1
     8     4     6    1
     9     6     7    1
    10     6    29    1
    11     6    30    1
    12     7     8    1
    13     7    31    1
    14     7    32    1
    15     8     9    1
    16     8    33    1
    17     8    34    1
    18     9    10    1
    19     9    35    1
    20     9    36    1
    21    10    11    1
    22    10    12    1
    23    12    13    1
    24    12    37    1
    25    13    21   ar
    26    13    14   ar
    27    14    15   ar
    28    14    38    1
    29    15    16   ar
    30    15    39    1
    31    16    17   ar
    32    17    18    1
    33    17    21   ar
    34    18    20    1
    35    18    19    1
    36    18    40    1
    37    19    20    1
    38    19    41    1
    39    19    42    1
    40    20    43    1
    41    20    44    1
    42    22    23    1
    43    22    25    1
    44    22    24    1
    45    24    25    1
    46    24    45    1
    47    24    46    1
    48    25    26    1
    49    25    27    1
@<TRIPOS>SUBSTRUCTURE
     1 ZINC001045463759        1 TEMP              0 ****  ****    0 ROOT


##########                                Name:    ZINC000369046711
##########                DOCK_Rotatable_Bonds:                   8
##########                         Heavy_Atoms:                  26
##########                    Molecular_Weight:             367.467
##########                DOCK_Rotatable_Bonds:                   8
##########                       Formal_Charge:        -7.63685e-07
##########                     HBond_Acceptors:                   8
##########                        HBond_Donors:                   1
##########                         Heavy_Atoms:                  26
##########                          Grid_Score:          -33.331867
##########                     Grid_vdw_energy:          -34.133667
##########                      Grid_es_energy:            0.801799
##########           Internal_energy_repulsive:           16.307447

@<TRIPOS>MOLECULE
ZINC000369046711
 56 58 1 0 0
SMALL
USER_CHARGES


@<TRIPOS>ATOM
      1 C1        -15.5651   -0.5597   47.7384 C.3     1  ZINC000369046711   -0.1800
      2 C2        -15.4591   -1.9275   48.4157 C.3     1  ZINC000369046711    0.1400
      3 C3        -16.4943   -2.0222   49.5384 C.3     1  ZINC000369046711   -0.1800
      4 C4        -15.7215   -3.0281   47.3859 C.3     1  ZINC000369046711   -0.1400
      5 O5        -14.1272   -2.0911   48.9704 O.3     1  ZINC000369046711   -0.3700
      6 C6        -13.9053   -1.5694   50.1916 C.2     1  ZINC000369046711    0.6500
      7 O7        -13.9052   -0.3642   50.3466 O.2     1  ZINC000369046711   -0.5700
      8 N8        -13.6832   -2.3839   51.2421 N.am    1  ZINC000369046711   -0.7100
      9 C9        -13.4435   -1.8162   52.5713 C.3     1  ZINC000369046711    0.1800
     10 H10       -14.0442   -0.9139   52.6857 H       1  ZINC000369046711    0.0900
     11 C11       -11.9652   -1.4500   52.6974 C.3     1  ZINC000369046711   -0.1300
     12 C12       -11.1417   -2.7346   52.5477 C.3     1  ZINC000369046711   -0.1200
     13 C13       -11.4780   -3.6613   53.7124 C.3     1  ZINC000369046711   -0.1200
     14 C14       -12.9546   -4.0615   53.6875 C.3     1  ZINC000369046711   -0.1000
     15 H15       -13.1696   -4.7841   52.9003 H       1  ZINC000369046711    0.0900
     16 C16       -13.2844   -4.6132   55.1016 C.3     1  ZINC000369046711    0.0400
     17 N17       -13.7710   -3.4743   55.9045 N.3     1  ZINC000369046711   -0.5200
     18 C18       -12.9336   -3.2732   57.0945 C.3     1  ZINC000369046711    0.1200
     19 C19       -13.7794   -3.4143   58.3337 C.2     1  ZINC000369046711    0.2900
     20 N20       -14.8623   -4.1399   58.4462 N.2     1  ZINC000369046711   -0.5400
     21 C21       -15.3529   -4.0312   59.6803 C.2     1  ZINC000369046711    0.2000
     22 N22       -14.5856   -3.2314   60.3732 N.2     1  ZINC000369046711   -0.3200
     23 N23       -13.5498   -2.8213   59.5181 N.pl3   1  ZINC000369046711   -0.3700
     24 C24       -12.4441   -1.9187   59.8483 C.3     1  ZINC000369046711    0.1000
     25 C25       -11.1379   -2.7131   59.9084 C.3     1  ZINC000369046711    0.0500
     26 F26       -10.0818   -1.8509   60.2225 F       1  ZINC000369046711   -0.2000
     27 C27       -13.7789   -2.2634   55.0495 C.3     1  ZINC000369046711    0.0500
     28 C28       -13.8597   -2.8195   53.6165 C.3     1  ZINC000369046711   -0.1000
     29 H29       -14.8828   -3.1344   53.4114 H       1  ZINC000369046711    0.0900
     30 H30       -15.3782    0.2245   48.4721 H       1  ZINC000369046711    0.0900
     31 H31       -14.8276   -0.4922   46.9386 H       1  ZINC000369046711    0.0600
     32 H32       -16.5649   -0.4369   47.3221 H       1  ZINC000369046711    0.0700
     33 H33       -17.4941   -1.8995   49.1220 H       1  ZINC000369046711    0.0700
     34 H34       -16.4188   -2.9968   50.0209 H       1  ZINC000369046711    0.0600
     35 H35       -16.3074   -1.2381   50.2720 H       1  ZINC000369046711    0.0900
     36 H36       -14.9840   -2.9607   46.5861 H       1  ZINC000369046711    0.0700
     37 H37       -15.6460   -4.0027   47.8685 H       1  ZINC000369046711    0.0700
     38 H38       -16.7213   -2.9054   46.9696 H       1  ZINC000369046711    0.0800
     39 H39       -13.6821   -3.3459   51.1183 H       1  ZINC000369046711    0.4000
     40 H40       -11.6925   -0.7444   51.9128 H       1  ZINC000369046711    0.0700
     41 H41       -11.7784   -1.0048   53.6747 H       1  ZINC000369046711    0.0800
     42 H42       -11.3917   -3.2232   51.6060 H       1  ZINC000369046711    0.0600
     43 H43       -10.0788   -2.4934   52.5657 H       1  ZINC000369046711    0.0700
     44 H44       -10.8629   -4.5587   53.6449 H       1  ZINC000369046711    0.0700
     45 H45       -11.2617   -3.1500   54.6505 H       1  ZINC000369046711    0.0600
     46 H46       -14.0587   -5.3772   55.0319 H       1  ZINC000369046711    0.0800
     47 H47       -12.3869   -5.0327   55.5562 H       1  ZINC000369046711    0.0800
     48 H48       -12.1391   -4.0193   57.1100 H       1  ZINC000369046711    0.0800
     49 H49       -12.4949   -2.2759   57.0657 H       1  ZINC000369046711    0.1000
     50 H50       -16.2410   -4.5236   60.0482 H       1  ZINC000369046711    0.2200
     51 H51       -12.3648   -1.1463   59.0832 H       1  ZINC000369046711    0.1200
     52 H52       -12.6314   -1.4536   60.8160 H       1  ZINC000369046711    0.1100
     53 H53       -11.2168   -3.4848   60.6740 H       1  ZINC000369046711    0.0900
     54 H54       -10.9511   -3.1789   58.9408 H       1  ZINC000369046711    0.0800
     55 H55       -14.6492   -1.6455   55.2704 H       1  ZINC000369046711    0.0900
     56 H56       -12.8598   -1.6934   55.1860 H       1  ZINC000369046711    0.0600
@<TRIPOS>BOND
     1     1     2    1
     2     1    30    1
     3     1    31    1
     4     1    32    1
     5     2     3    1
     6     2     4    1
     7     2     5    1
     8     3    33    1
     9     3    34    1
    10     3    35    1
    11     4    36    1
    12     4    37    1
    13     4    38    1
    14     5     6    1
    15     6     7    2
    16     6     8   am
    17     8     9    1
    18     8    39    1
    19     9    10    1
    20     9    28    1
    21     9    11    1
    22    11    12    1
    23    11    40    1
    24    11    41    1
    25    12    13    1
    26    12    42    1
    27    12    43    1
    28    13    14    1
    29    13    44    1
    30    13    45    1
    31    14    15    1
    32    14    28    1
    33    14    16    1
    34    16    17    1
    35    16    46    1
    36    16    47    1
    37    17    18    1
    38    17    27    1
    39    18    19    1
    40    18    48    1
    41    18    49    1
    42    19    23    1
    43    19    20    2
    44    20    21    1
    45    21    22    2
    46    21    50    1
    47    22    23    1
    48    23    24    1
    49    24    25    1
    50    24    51    1
    51    24    52    1
    52    25    26    1
    53    25    53    1
    54    25    54    1
    55    27    28    1
    56    27    55    1
    57    27    56    1
    58    28    29    1
@<TRIPOS>SUBSTRUCTURE
     1 ZINC000369046711        1 TEMP              0 ****  ****    0 ROOT


##########                                Name:    ZINC000967287417
##########                DOCK_Rotatable_Bonds:                   7
##########                         Heavy_Atoms:                  25
##########                    Molecular_Weight:             347.414
##########                DOCK_Rotatable_Bonds:                   7
##########                       Formal_Charge:          -0.0200002
##########                     HBond_Acceptors:                   7
##########                        HBond_Donors:                   1
##########                         Heavy_Atoms:                  25
##########                          Grid_Score:          -33.298134
##########                     Grid_vdw_energy:          -32.801712
##########                      Grid_es_energy:           -0.496422
##########           Internal_energy_repulsive:            7.151504

@<TRIPOS>MOLECULE
ZINC000967287417
 50 52 1 0 0
SMALL
USER_CHARGES


@<TRIPOS>ATOM
      1 C1         -5.5228    1.0380   51.0428 C.3     1  ZINC000967287417    0.0300
      2 O2         -6.7376    0.4759   51.5432 O.3     1  ZINC000967287417   -0.3900
      3 C3         -7.7262    1.4466   51.8932 C.3     1  ZINC000967287417    0.1400
      4 C4         -8.9587    0.7463   52.4046 C.2     1  ZINC000967287417    0.0100
      5 C5         -9.8312    1.2474   53.3066 C.2     1  ZINC000967287417   -0.1900
      6 C6        -10.8274    0.2777   53.5005 C.2     1  ZINC000967287417   -0.1200
      7 C7        -10.5083   -0.7791   52.6969 C.2     1  ZINC000967287417   -0.0700
      8 C8        -11.2694   -2.0263   52.5705 C.2     1  ZINC000967287417    0.6100
      9 O9        -10.9078   -2.8828   51.7852 O.2     1  ZINC000967287417   -0.5200
     10 N10       -12.3693   -2.2239   53.3238 N.am    1  ZINC000967287417   -0.7000
     11 C11       -13.1286   -3.4706   53.1988 C.3     1  ZINC000967287417    0.1600
     12 H12       -12.8252   -3.9919   52.2909 H       1  ZINC000967287417    0.1000
     13 C13       -12.8551   -4.3595   54.4140 C.3     1  ZINC000967287417    0.0400
     14 N14       -13.2822   -3.6656   55.6357 N.3     1  ZINC000967287417   -0.5300
     15 C15       -12.9088   -4.4301   56.8332 C.3     1  ZINC000967287417    0.1300
     16 C16       -11.7832   -3.7269   57.5472 C.2     1  ZINC000967287417    0.0200
     17 N17       -11.3836   -2.5026   57.3576 N.2     1  ZINC000967287417   -0.3500
     18 O18       -10.4567   -2.2197   58.0808 O.3     1  ZINC000967287417    0.1000
     19 C19       -10.1121   -3.2499   58.8660 C.2     1  ZINC000967287417   -0.0300
     20 C20        -9.0082   -3.2728   59.8917 C.3     1  ZINC000967287417   -0.0800
     21 C21       -10.9560   -4.2643   58.5600 C.2     1  ZINC000967287417   -0.2400
     22 C22       -14.7249   -3.3924   55.6144 C.3     1  ZINC000967287417    0.0500
     23 C23       -15.0542   -2.4747   54.4349 C.3     1  ZINC000967287417   -0.1100
     24 C24       -14.6249   -3.1531   53.1302 C.3     1  ZINC000967287417   -0.1000
     25 H25       -15.1876   -4.0772   52.9978 H       1  ZINC000967287417    0.0900
     26 C26       -14.8976   -2.2152   51.9523 C.3     1  ZINC000967287417   -0.1500
     27 O27        -9.3730   -0.4727   52.0356 O.3     1  ZINC000967287417   -0.1600
     28 H28        -5.0829    1.6860   51.8009 H       1  ZINC000967287417    0.0500
     29 H29        -4.8246    0.2368   50.8003 H       1  ZINC000967287417    0.0900
     30 H30        -5.7341    1.6198   50.1456 H       1  ZINC000967287417    0.0500
     31 H31        -7.3325    2.1025   52.6696 H       1  ZINC000967287417    0.0900
     32 H32        -7.9825    2.0375   51.0138 H       1  ZINC000967287417    0.0700
     33 H33        -9.7731    2.2124   53.7879 H       1  ZINC000967287417    0.1600
     34 H34       -11.6810    0.3529   54.1580 H       1  ZINC000967287417    0.1600
     35 H35       -12.6582   -1.5407   53.9489 H       1  ZINC000967287417    0.4100
     36 H36       -13.4094   -5.2926   54.3137 H       1  ZINC000967287417    0.0500
     37 H37       -11.7883   -4.5756   54.4733 H       1  ZINC000967287417    0.0900
     38 H38       -13.7690   -4.5069   57.4982 H       1  ZINC000967287417    0.0600
     39 H39       -12.5855   -5.4290   56.5405 H       1  ZINC000967287417    0.0900
     40 H40        -8.5089   -2.3041   59.9097 H       1  ZINC000967287417    0.0800
     41 H41        -9.4298   -3.4827   60.8746 H       1  ZINC000967287417    0.0900
     42 H42        -8.2874   -4.0483   59.6323 H       1  ZINC000967287417    0.0900
     43 H43       -10.9857   -5.2562   58.9863 H       1  ZINC000967287417    0.1700
     44 H44       -15.2705   -4.3300   55.5084 H       1  ZINC000967287417    0.0400
     45 H45       -15.0163   -2.9061   56.5454 H       1  ZINC000967287417    0.0800
     46 H46       -16.1273   -2.2847   54.4101 H       1  ZINC000967287417    0.0700
     47 H47       -14.5197   -1.5314   54.5474 H       1  ZINC000967287417    0.0700
     48 H48       -14.3327   -1.2924   52.0844 H       1  ZINC000967287417    0.0600
     49 H49       -14.5918   -2.6988   51.0245 H       1  ZINC000967287417    0.0600
     50 H50       -15.9624   -1.9864   51.9091 H       1  ZINC000967287417    0.0600
@<TRIPOS>BOND
     1     1     2    1
     2     1    28    1
     3     1    29    1
     4     1    30    1
     5     2     3    1
     6     3     4    1
     7     3    31    1
     8     3    32    1
     9     4    27    1
    10     4     5    2
    11     5     6    1
    12     5    33    1
    13     6     7    2
    14     6    34    1
    15     7     8    1
    16     7    27    1
    17     8     9    2
    18     8    10   am
    19    10    11    1
    20    10    35    1
    21    11    12    1
    22    11    24    1
    23    11    13    1
    24    13    14    1
    25    13    36    1
    26    13    37    1
    27    14    15    1
    28    14    22    1
    29    15    16    1
    30    15    38    1
    31    15    39    1
    32    16    21    1
    33    16    17    2
    34    17    18    1
    35    18    19    1
    36    19    20    1
    37    19    21    2
    38    20    40    1
    39    20    41    1
    40    20    42    1
    41    21    43    1
    42    22    23    1
    43    22    44    1
    44    22    45    1
    45    23    24    1
    46    23    46    1
    47    23    47    1
    48    24    25    1
    49    24    26    1
    50    26    48    1
    51    26    49    1
    52    26    50    1
@<TRIPOS>SUBSTRUCTURE
     1 ZINC000967287417        1 TEMP              0 ****  ****    0 ROOT


##########                                Name:    ZINC001386869844
##########                DOCK_Rotatable_Bonds:                   9
##########                         Heavy_Atoms:                  25
##########                    Molecular_Weight:             345.485
##########                DOCK_Rotatable_Bonds:                   9
##########                       Formal_Charge:          -0.0300003
##########                     HBond_Acceptors:                   5
##########                        HBond_Donors:                   2
##########                         Heavy_Atoms:                  25
##########                          Grid_Score:          -33.285217
##########                     Grid_vdw_energy:          -32.432114
##########                      Grid_es_energy:           -0.853104
##########           Internal_energy_repulsive:           32.624825

@<TRIPOS>MOLECULE
ZINC001386869844
 56 58 1 0 0
SMALL
USER_CHARGES


@<TRIPOS>ATOM
      1 C1        -14.0386   -4.4217   56.5727 C.3     1  ZINC001386869844    0.0600
      2 N2        -13.2673   -4.0684   55.3783 N.am    1  ZINC001386869844   -0.6200
      3 C3        -13.7604   -4.4433   54.0507 C.3     1  ZINC001386869844    0.1100
      4 C4        -14.5855   -3.2933   53.4697 C.3     1  ZINC001386869844    0.1000
      5 N5        -13.8813   -2.7190   52.3206 N.am    1  ZINC001386869844   -0.7300
      6 C6        -14.5018   -1.8209   51.5299 C.2     1  ZINC001386869844    0.5200
      7 O7        -15.6449   -1.4922   51.7669 O.2     1  ZINC001386869844   -0.5300
      8 C8        -13.7773   -1.2301   50.3479 C.3     1  ZINC001386869844   -0.1300
      9 C9        -14.7347   -1.1358   49.1582 C.3     1  ZINC001386869844   -0.0100
     10 C10       -13.9647   -0.6745   47.9193 C.3     1  ZINC001386869844   -0.1500
     11 C11       -15.3540   -2.5092   48.8918 C.3     1  ZINC001386869844   -0.1600
     12 C12       -15.8429   -0.1292   49.4741 C.3     1  ZINC001386869844   -0.1500
     13 C13       -16.1108    0.9722   48.4464 C.3     1  ZINC001386869844   -0.1900
     14 C14       -15.4242    1.3121   49.7716 C.3     1  ZINC001386869844   -0.1800
     15 C15       -12.1041   -3.3987   55.5008 C.2     1  ZINC001386869844    0.5900
     16 O16       -11.4635   -3.1055   54.5087 O.2     1  ZINC001386869844   -0.5200
     17 C17       -11.6105   -3.0234   56.8301 C.2     1  ZINC001386869844   -0.0600
     18 C18       -11.9080   -1.8605   57.5120 C.2     1  ZINC001386869844   -0.0900
     19 C19       -11.2301   -1.9168   58.7270 C.2     1  ZINC001386869844   -0.1700
     20 C20       -10.5410   -3.0880   58.7707 C.2     1  ZINC001386869844    0.0500
     21 C21        -9.6763   -3.5124   59.9339 C.3     1  ZINC001386869844   -0.0600
     22 C22        -9.3859   -2.2788   60.7967 C.3     1  ZINC001386869844   -0.1100
     23 C23       -10.6970   -1.5519   61.1079 C.3     1  ZINC001386869844   -0.1200
     24 C24       -11.2292   -0.8894   59.8314 C.3     1  ZINC001386869844   -0.0500
     25 N25       -10.7708   -3.7704   57.6274 N.pl3   1  ZINC001386869844   -0.5400
     26 H26       -13.6483   -5.3468   56.9968 H       1  ZINC001386869844    0.0600
     27 H27       -13.9559   -3.6215   57.3083 H       1  ZINC001386869844    0.0800
     28 H28       -15.0853   -4.5593   56.3018 H       1  ZINC001386869844    0.0900
     29 H29       -14.3847   -5.3330   54.1330 H       1  ZINC001386869844    0.1000
     30 H30       -12.9153   -4.6518   53.3947 H       1  ZINC001386869844    0.0900
     31 H31       -14.7253   -2.5257   54.2308 H       1  ZINC001386869844    0.0700
     32 H32       -15.5573   -3.6689   53.1496 H       1  ZINC001386869844    0.0700
     33 H33       -12.9684   -2.9850   52.1287 H       1  ZINC001386869844    0.4000
     34 H34       -13.4165   -0.2340   50.6038 H       1  ZINC001386869844    0.0900
     35 H35       -12.9323   -1.8662   50.0847 H       1  ZINC001386869844    0.0900
     36 H36       -13.1752   -1.3915   47.6943 H       1  ZINC001386869844    0.0800
     37 H37       -14.6468   -0.6072   47.0717 H       1  ZINC001386869844    0.0500
     38 H38       -13.5234    0.3040   48.1091 H       1  ZINC001386869844    0.0500
     39 H39       -15.9026   -2.8378   49.7745 H       1  ZINC001386869844    0.0500
     40 H40       -16.0362   -2.4420   48.0443 H       1  ZINC001386869844    0.0500
     41 H41       -14.5646   -3.2262   48.6669 H       1  ZINC001386869844    0.0800
     42 H42       -16.6983   -0.5275   50.0195 H       1  ZINC001386869844    0.1000
     43 H43       -15.4976    0.9796   47.5452 H       1  ZINC001386869844    0.1000
     44 H44       -17.1426    1.2985   48.3159 H       1  ZINC001386869844    0.0900
     45 H45       -16.0047    1.8621   50.5124 H       1  ZINC001386869844    0.0900
     46 H46       -14.3595    1.5432   49.7423 H       1  ZINC001386869844    0.0900
     47 H47       -12.5450   -1.0590   57.1681 H       1  ZINC001386869844    0.1500
     48 H48       -10.2015   -4.2604   60.5279 H       1  ZINC001386869844    0.0800
     49 H49        -8.7401   -3.9291   59.5624 H       1  ZINC001386869844    0.0800
     50 H50        -8.9133   -2.5902   61.7282 H       1  ZINC001386869844    0.0700
     51 H51        -8.7177   -1.6075   60.2574 H       1  ZINC001386869844    0.0700
     52 H52       -11.4304   -2.2680   61.4786 H       1  ZINC001386869844    0.0600
     53 H53       -10.5185   -0.7892   61.8659 H       1  ZINC001386869844    0.0700
     54 H54       -10.5855   -0.0542   59.5554 H       1  ZINC001386869844    0.0700
     55 H55       -12.2447   -0.5307   59.9999 H       1  ZINC001386869844    0.0700
     56 H56       -10.4041   -4.6402   57.4042 H       1  ZINC001386869844    0.4200
@<TRIPOS>BOND
     1     1     2    1
     2     1    26    1
     3     1    27    1
     4     1    28    1
     5     2     3    1
     6     2    15   am
     7     3     4    1
     8     3    29    1
     9     3    30    1
    10     4     5    1
    11     4    31    1
    12     4    32    1
    13     5     6   am
    14     5    33    1
    15     6     7    2
    16     6     8    1
    17     8     9    1
    18     8    34    1
    19     8    35    1
    20     9    10    1
    21     9    11    1
    22     9    12    1
    23    10    36    1
    24    10    37    1
    25    10    38    1
    26    11    39    1
    27    11    40    1
    28    11    41    1
    29    12    14    1
    30    12    13    1
    31    12    42    1
    32    13    14    1
    33    13    43    1
    34    13    44    1
    35    14    45    1
    36    14    46    1
    37    15    16    2
    38    15    17    1
    39    17    25    1
    40    17    18    2
    41    18    19    1
    42    18    47    1
    43    19    24    1
    44    19    20    2
    45    20    21    1
    46    20    25    1
    47    21    22    1
    48    21    48    1
    49    21    49    1
    50    22    23    1
    51    22    50    1
    52    22    51    1
    53    23    24    1
    54    23    52    1
    55    23    53    1
    56    24    54    1
    57    24    55    1
    58    25    56    1
@<TRIPOS>SUBSTRUCTURE
     1 ZINC001386869844        1 TEMP              0 ****  ****    0 ROOT


##########                                Name:    ZINC000811540126
##########                DOCK_Rotatable_Bonds:                   7
##########                         Heavy_Atoms:                  21
##########                    Molecular_Weight:             397.212
##########                DOCK_Rotatable_Bonds:                   7
##########                       Formal_Charge:           0.0100001
##########                     HBond_Acceptors:                   4
##########                        HBond_Donors:                   3
##########                         Heavy_Atoms:                  21
##########                          Grid_Score:          -33.265778
##########                     Grid_vdw_energy:          -32.180107
##########                      Grid_es_energy:           -1.085671
##########           Internal_energy_repulsive:            8.440568

@<TRIPOS>MOLECULE
ZINC000811540126
 37 38 1 0 0
SMALL
USER_CHARGES


@<TRIPOS>ATOM
      1 C1        -12.9903   -1.6999   60.5690 C.3     1  ZINC000811540126   -0.1600
      2 C2        -11.8211   -2.2586   59.7553 C.3     1  ZINC000811540126    0.1200
      3 H3        -11.4124   -3.1338   60.2604 H       1  ZINC000811540126    0.1000
      4 N4        -12.2924   -2.6400   58.4217 N.am    1  ZINC000811540126   -0.7200
      5 C5        -11.7441   -3.6968   57.7900 C.2     1  ZINC000811540126    0.5700
      6 O6        -10.8594   -4.3345   58.3276 O.2     1  ZINC000811540126   -0.5100
      7 C7        -12.2175   -4.0799   56.4462 C.ar    1  ZINC000811540126   -0.1600
      8 C8        -11.6501   -3.4992   55.3097 C.ar    1  ZINC000811540126   -0.0400
      9 C9        -12.0971   -3.8616   54.0567 C.ar    1  ZINC000811540126   -0.1200
     10 I10       -11.2451   -2.9896   52.3529 I       1  ZINC000811540126   -0.0300
     11 C11       -13.1070   -4.8002   53.9194 C.ar    1  ZINC000811540126   -0.0400
     12 C12       -13.6766   -5.3815   55.0351 C.ar    1  ZINC000811540126   -0.1500
     13 C13       -13.2353   -5.0330   56.3025 C.ar    1  ZINC000811540126    0.1900
     14 O14       -13.7937   -5.6037   57.3993 O.3     1  ZINC000811540126   -0.4700
     15 C15       -10.7336   -1.1902   59.6256 C.3     1  ZINC000811540126    0.1400
     16 H16       -11.1072   -0.3628   59.0224 H       1  ZINC000811540126    0.1300
     17 O17        -9.5821   -1.7564   58.9967 O.3     1  ZINC000811540126   -0.5400
     18 C18       -10.3602   -0.6847   60.9953 C.ar    1  ZINC000811540126   -0.1200
     19 C19        -9.6744   -1.5048   61.8715 C.ar    1  ZINC000811540126   -0.1100
     20 C20        -9.3318   -1.0411   63.1280 C.ar    1  ZINC000811540126   -0.1100
     21 C21        -9.6749    0.2430   63.5079 C.ar    1  ZINC000811540126   -0.1200
     22 C22       -10.3601    1.0634   62.6314 C.ar    1  ZINC000811540126   -0.1100
     23 C23       -10.6987    0.6012   61.3734 C.ar    1  ZINC000811540126   -0.1100
     24 H24       -13.7651   -2.4610   60.6614 H       1  ZINC000811540126    0.0600
     25 H25       -12.6395   -1.4161   61.5612 H       1  ZINC000811540126    0.0700
     26 H26       -13.3990   -0.8247   60.0640 H       1  ZINC000811540126    0.0700
     27 H27       -12.9991   -2.1321   57.9934 H       1  ZINC000811540126    0.3900
     28 H28       -10.8627   -2.7671   55.4122 H       1  ZINC000811540126    0.1300
     29 H29       -13.4510   -5.0786   52.9343 H       1  ZINC000811540126    0.1400
     30 H30       -14.4636   -6.1121   54.9200 H       1  ZINC000811540126    0.1500
     31 H31       -13.1591   -5.8214   58.0957 H       1  ZINC000811540126    0.4000
     32 H32        -9.0662   -2.3381   59.5715 H       1  ZINC000811540126    0.3700
     33 H33        -9.4064   -2.5080   61.5746 H       1  ZINC000811540126    0.1100
     34 H34        -8.7966   -1.6821   63.8128 H       1  ZINC000811540126    0.1200
     35 H35        -9.4080    0.6051   64.4898 H       1  ZINC000811540126    0.1200
     36 H36       -10.6283    2.0666   62.9285 H       1  ZINC000811540126    0.1300
     37 H37       -11.2340    1.2422   60.6886 H       1  ZINC000811540126    0.1200
@<TRIPOS>BOND
     1     1     2    1
     2     1    24    1
     3     1    25    1
     4     1    26    1
     5     2     3    1
     6     2     4    1
     7     2    15    1
     8     4     5   am
     9     4    27    1
    10     5     6    2
    11     5     7    1
    12     7    13   ar
    13     7     8   ar
    14     8     9   ar
    15     8    28    1
    16     9    10    1
    17     9    11   ar
    18    11    12   ar
    19    11    29    1
    20    12    13   ar
    21    12    30    1
    22    13    14    1
    23    14    31    1
    24    15    16    1
    25    15    17    1
    26    15    18    1
    27    17    32    1
    28    18    23   ar
    29    18    19   ar
    30    19    20   ar
    31    19    33    1
    32    20    21   ar
    33    20    34    1
    34    21    22   ar
    35    21    35    1
    36    22    23   ar
    37    22    36    1
    38    23    37    1
@<TRIPOS>SUBSTRUCTURE
     1 ZINC000811540126        1 TEMP              0 ****  ****    0 ROOT


##########                                Name:    ZINC000652498551
##########                DOCK_Rotatable_Bonds:                   6
##########                         Heavy_Atoms:                  23
##########                    Molecular_Weight:             388.277
##########                DOCK_Rotatable_Bonds:                   6
##########                       Formal_Charge:          -0.0400001
##########                     HBond_Acceptors:                   5
##########                        HBond_Donors:                   1
##########                         Heavy_Atoms:                  23
##########                          Grid_Score:          -33.238987
##########                     Grid_vdw_energy:          -32.996983
##########                      Grid_es_energy:           -0.242006
##########           Internal_energy_repulsive:           19.141233

@<TRIPOS>MOLECULE
ZINC000652498551
 46 47 1 0 0
SMALL
USER_CHARGES


@<TRIPOS>ATOM
      1 C1        -11.2085   -1.6580   53.3454 C.3     1  ZINC000652498551   -0.1300
      2 C2        -12.2794   -2.5042   54.0370 C.3     1  ZINC000652498551   -0.1300
      3 C3        -13.4257   -1.6007   54.4957 C.3     1  ZINC000652498551   -0.1300
      4 C4        -12.8069   -3.5340   53.0714 C.2     1  ZINC000652498551    0.5000
      5 O5        -12.1756   -4.5565   52.8656 O.co2   1  ZINC000652498551   -0.7000
      6 O6        -13.8650   -3.3445   52.4960 O.co2   1  ZINC000652498551   -0.6700
      7 C7        -11.6682   -3.2083   55.2500 C.3     1  ZINC000652498551   -0.0600
      8 H8        -10.7854   -3.7674   54.9398 H       1  ZINC000652498551    0.0700
      9 C9        -12.6957   -4.1694   55.8548 C.3     1  ZINC000652498551   -0.1500
     10 C10       -12.1022   -4.8101   57.1128 C.3     1  ZINC000652498551   -0.1400
     11 C11       -11.6903   -3.7098   58.0931 C.3     1  ZINC000652498551   -0.0100
     12 N12       -10.6878   -2.8404   57.4654 N.4     1  ZINC000652498551   -0.3800
     13 H13        -9.8989   -3.3965   57.1711 H       1  ZINC000652498551    0.4200
     14 C14       -10.2398   -1.8323   58.4354 C.3     1  ZINC000652498551    0.0000
     15 C15        -9.3251   -2.4911   59.4699 C.3     1  ZINC000652498551    0.0200
     16 O16       -10.1023   -2.9150   60.5917 O.3     1  ZINC000652498551   -0.3100
     17 C17       -10.5400   -1.9477   61.4399 C.ar    1  ZINC000652498551    0.1600
     18 C18       -11.8729   -1.5657   61.4286 C.ar    1  ZINC000652498551   -0.2300
     19 C19       -12.3165   -0.5803   62.2932 C.ar    1  ZINC000652498551    0.1500
     20 F20       -13.6150   -0.2074   62.2830 F       1  ZINC000652498551   -0.1200
     21 C21       -11.4299    0.0232   63.1689 C.ar    1  ZINC000652498551   -0.1600
     22 C22       -10.0998   -0.3571   63.1803 C.ar    1  ZINC000652498551   -0.0300
     23 Br23       -8.8915    0.4690   64.3776 Br      1  ZINC000652498551   -0.0100
     24 C24        -9.6546   -1.3450   62.3221 C.ar    1  ZINC000652498551   -0.1300
     25 C25       -11.2713   -2.1672   56.2988 C.3     1  ZINC000652498551   -0.0200
     26 H26       -10.8269   -0.9131   54.0437 H       1  ZINC000652498551    0.0400
     27 H27       -10.3919   -2.3017   53.0186 H       1  ZINC000652498551    0.0500
     28 H28       -11.6439   -1.1564   52.4812 H       1  ZINC000652498551    0.0600
     29 H29       -13.8611   -1.0991   53.6315 H       1  ZINC000652498551    0.0700
     30 H30       -14.1887   -2.2035   54.9883 H       1  ZINC000652498551    0.0400
     31 H31       -13.0441   -0.8558   55.1941 H       1  ZINC000652498551    0.0500
     32 H32       -13.5991   -3.6191   56.1175 H       1  ZINC000652498551    0.1300
     33 H33       -12.9386   -4.9465   55.1300 H       1  ZINC000652498551    0.0800
     34 H34       -12.8479   -5.4534   57.5800 H       1  ZINC000652498551    0.1000
     35 H35       -11.2281   -5.4023   56.8419 H       1  ZINC000652498551    0.0700
     36 H36       -12.5651   -3.1184   58.3634 H       1  ZINC000652498551    0.1300
     37 H37       -11.2675   -4.1624   58.9900 H       1  ZINC000652498551    0.1100
     38 H38        -9.6930   -1.0457   57.9156 H       1  ZINC000652498551    0.1400
     39 H39       -11.1058   -1.4016   58.9381 H       1  ZINC000652498551    0.1500
     40 H40        -8.8325   -3.3543   59.0222 H       1  ZINC000652498551    0.1100
     41 H41        -8.5731   -1.7740   59.7991 H       1  ZINC000652498551    0.0900
     42 H42       -12.5644   -2.0365   60.7455 H       1  ZINC000652498551    0.1500
     43 H43       -11.7770    0.7917   63.8435 H       1  ZINC000652498551    0.1500
     44 H44        -8.6162   -1.6414   62.3320 H       1  ZINC000652498551    0.1500
     45 H45       -10.5395   -1.4815   55.8720 H       1  ZINC000652498551    0.1100
     46 H46       -12.1551   -1.6086   56.6067 H       1  ZINC000652498551    0.1700
@<TRIPOS>BOND
     1     1     2    1
     2     1    26    1
     3     1    27    1
     4     1    28    1
     5     2     3    1
     6     2     4    1
     7     2     7    1
     8     3    29    1
     9     3    30    1
    10     3    31    1
    11     4     5   ar
    12     4     6   ar
    13     7     8    1
    14     7    25    1
    15     7     9    1
    16     9    10    1
    17     9    32    1
    18     9    33    1
    19    10    11    1
    20    10    34    1
    21    10    35    1
    22    11    12    1
    23    11    36    1
    24    11    37    1
    25    12    13    1
    26    12    14    1
    27    12    25    1
    28    14    15    1
    29    14    38    1
    30    14    39    1
    31    15    16    1
    32    15    40    1
    33    15    41    1
    34    16    17    1
    35    17    24   ar
    36    17    18   ar
    37    18    19   ar
    38    18    42    1
    39    19    20    1
    40    19    21   ar
    41    21    22   ar
    42    21    43    1
    43    22    23    1
    44    22    24   ar
    45    24    44    1
    46    25    45    1
    47    25    46    1
@<TRIPOS>SUBSTRUCTURE
     1 ZINC000652498551        1 TEMP              0 ****  ****    0 ROOT


##########                                Name:    ZINC001074839487
##########                DOCK_Rotatable_Bonds:                   7
##########                         Heavy_Atoms:                  25
##########                    Molecular_Weight:             344.454
##########                DOCK_Rotatable_Bonds:                   7
##########                       Formal_Charge:          -0.0500005
##########                     HBond_Acceptors:                   5
##########                        HBond_Donors:                   1
##########                         Heavy_Atoms:                  25
##########                          Grid_Score:          -33.224304
##########                     Grid_vdw_energy:          -33.001877
##########                      Grid_es_energy:           -0.222428
##########           Internal_energy_repulsive:           91.636337

@<TRIPOS>MOLECULE
ZINC001074839487
 53 55 1 0 0
SMALL
USER_CHARGES


@<TRIPOS>ATOM
      1 C1        -14.3230    0.2095   48.4061 C.3     1  ZINC001074839487   -0.1500
      2 C2        -14.3975   -0.3481   49.8290 C.3     1  ZINC001074839487   -0.1300
      3 C3        -14.0383    0.7536   50.8280 C.3     1  ZINC001074839487   -0.1100
      4 C4        -14.0970    0.1918   52.2499 C.3     1  ZINC001074839487   -0.1400
      5 C5        -13.0772   -0.9077   52.3981 C.2     1  ZINC001074839487    0.5100
      6 O6        -12.0088   -0.8246   51.8301 O.2     1  ZINC001074839487   -0.5400
      7 N7        -13.3523   -1.9836   53.1619 N.am    1  ZINC001074839487   -0.7300
      8 C8        -12.3602   -3.0516   53.3074 C.3     1  ZINC001074839487    0.1400
      9 H9        -11.8069   -3.1628   52.3748 H       1  ZINC001074839487    0.0900
     10 C10       -11.3902   -2.6961   54.4365 C.3     1  ZINC001074839487   -0.1500
     11 C11       -12.1754   -2.5070   55.7382 C.3     1  ZINC001074839487    0.0700
     12 N12       -12.9754   -3.7139   55.9875 N.am    1  ZINC001074839487   -0.6000
     13 C13       -12.8851   -4.3669   57.1631 C.2     1  ZINC001074839487    0.5600
     14 O14       -13.5523   -5.3642   57.3572 O.2     1  ZINC001074839487   -0.5200
     15 C15       -11.9747   -3.8700   58.2167 C.ar    1  ZINC001074839487   -0.1300
     16 C16       -10.7812   -4.5417   58.4854 C.ar    1  ZINC001074839487   -0.1000
     17 C17        -9.9348   -4.0735   59.4702 C.ar    1  ZINC001074839487   -0.1000
     18 C18       -10.2674   -2.9424   60.1893 C.ar    1  ZINC001074839487   -0.1100
     19 C19        -9.5683   -2.1982   61.3035 C.3     1  ZINC001074839487    0.0900
     20 O20       -10.5734   -1.3730   61.9200 O.3     1  ZINC001074839487   -0.3600
     21 C21       -11.5188   -1.0925   60.8716 C.3     1  ZINC001074839487    0.0900
     22 C22       -11.4530   -2.2700   59.9270 C.ar    1  ZINC001074839487   -0.1400
     23 C23       -12.3029   -2.7234   58.9435 C.ar    1  ZINC001074839487   -0.0400
     24 C24       -13.8751   -4.1959   54.9308 C.3     1  ZINC001074839487    0.1500
     25 H25       -14.6734   -3.4709   54.7717 H       1  ZINC001074839487    0.0700
     26 C26       -14.4752   -5.5418   55.3424 C.3     1  ZINC001074839487   -0.1400
     27 C27       -13.0709   -4.3660   53.6380 C.3     1  ZINC001074839487   -0.1400
     28 H28       -15.0253    1.0366   48.3029 H       1  ZINC001074839487    0.0500
     29 H29       -14.5788   -0.5755   47.6944 H       1  ZINC001074839487    0.0500
     30 H30       -13.3118    0.5645   48.2075 H       1  ZINC001074839487    0.0500
     31 H31       -15.4086   -0.7032   50.0277 H       1  ZINC001074839487    0.0600
     32 H32       -13.6951   -1.1753   49.9323 H       1  ZINC001074839487    0.0600
     33 H33       -13.0313    1.1167   50.6220 H       1  ZINC001074839487    0.0700
     34 H34       -14.7475    1.5758   50.7326 H       1  ZINC001074839487    0.0700
     35 H35       -13.8808    0.9866   52.9637 H       1  ZINC001074839487    0.0900
     36 H36       -15.0927   -0.2079   52.4417 H       1  ZINC001074839487    0.0900
     37 H37       -14.2072   -2.0506   53.6152 H       1  ZINC001074839487    0.4000
     38 H38       -10.6668   -3.5017   54.5618 H       1  ZINC001074839487    0.0800
     39 H39       -10.8674   -1.7722   54.1895 H       1  ZINC001074839487    0.0800
     40 H40       -11.4814   -2.3515   56.5642 H       1  ZINC001074839487    0.1200
     41 H41       -12.8350   -1.6443   55.6451 H       1  ZINC001074839487    0.0700
     42 H42       -10.5199   -5.4262   57.9232 H       1  ZINC001074839487    0.1500
     43 H43        -9.0108   -4.5924   59.6785 H       1  ZINC001074839487    0.1400
     44 H44        -9.1637   -2.9031   62.0298 H       1  ZINC001074839487    0.1000
     45 H45        -8.7700   -1.5772   60.8971 H       1  ZINC001074839487    0.0800
     46 H46       -12.5226   -0.9992   61.2861 H       1  ZINC001074839487    0.1000
     47 H47       -11.2406   -0.1767   60.3502 H       1  ZINC001074839487    0.0800
     48 H48       -13.2228   -2.1964   58.7373 H       1  ZINC001074839487    0.1400
     49 H49       -15.1327   -5.3993   56.2000 H       1  ZINC001074839487    0.0800
     50 H50       -15.0467   -5.9543   54.5108 H       1  ZINC001074839487    0.0500
     51 H51       -13.6737   -6.2305   55.6094 H       1  ZINC001074839487    0.0700
     52 H52       -13.7442   -4.6306   52.8228 H       1  ZINC001074839487    0.0900
     53 H53       -12.3316   -5.1559   53.7708 H       1  ZINC001074839487    0.0900
@<TRIPOS>BOND
     1     1     2    1
     2     1    28    1
     3     1    29    1
     4     1    30    1
     5     2     3    1
     6     2    31    1
     7     2    32    1
     8     3     4    1
     9     3    33    1
    10     3    34    1
    11     4     5    1
    12     4    35    1
    13     4    36    1
    14     5     6    2
    15     5     7   am
    16     7     8    1
    17     7    37    1
    18     8     9    1
    19     8    27    1
    20     8    10    1
    21    10    11    1
    22    10    38    1
    23    10    39    1
    24    11    12    1
    25    11    40    1
    26    11    41    1
    27    12    13   am
    28    12    24    1
    29    13    14    2
    30    13    15    1
    31    15    23   ar
    32    15    16   ar
    33    16    17   ar
    34    16    42    1
    35    17    18   ar
    36    17    43    1
    37    18    22   ar
    38    18    19    1
    39    19    20    1
    40    19    44    1
    41    19    45    1
    42    20    21    1
    43    21    22    1
    44    21    46    1
    45    21    47    1
    46    22    23   ar
    47    23    48    1
    48    24    25    1
    49    24    26    1
    50    24    27    1
    51    26    49    1
    52    26    50    1
    53    26    51    1
    54    27    52    1
    55    27    53    1
@<TRIPOS>SUBSTRUCTURE
     1 ZINC001074839487        1 TEMP              0 ****  ****    0 ROOT


##########                                Name:    ZINC000938043669
##########                DOCK_Rotatable_Bonds:                   7
##########                         Heavy_Atoms:                  27
##########                    Molecular_Weight:             372.439
##########                DOCK_Rotatable_Bonds:                   7
##########                       Formal_Charge:           0.0499999
##########                     HBond_Acceptors:                   6
##########                        HBond_Donors:                   1
##########                         Heavy_Atoms:                  27
##########                          Grid_Score:          -33.217674
##########                     Grid_vdw_energy:          -32.792549
##########                      Grid_es_energy:           -0.425124
##########           Internal_energy_repulsive:           15.422531

@<TRIPOS>MOLECULE
ZINC000938043669
 52 55 1 0 0
SMALL
USER_CHARGES


@<TRIPOS>ATOM
      1 O1        -12.8242   -5.3785   52.9519 O.2     1  ZINC000938043669   -0.5000
      2 C2        -12.3738   -4.5343   53.6972 C.2     1  ZINC000938043669    0.5300
      3 C3        -11.3825   -3.5241   53.1798 C.3     1  ZINC000938043669    0.0500
      4 O4        -11.8724   -2.2050   53.4291 O.3     1  ZINC000938043669   -0.2800
      5 C5        -10.9465   -1.2335   53.6464 C.ar    1  ZINC000938043669    0.0900
      6 C6        -11.0332   -0.4311   54.7733 C.ar    1  ZINC000938043669   -0.1800
      7 C7        -10.0905    0.5557   54.9926 C.ar    1  ZINC000938043669   -0.0900
      8 C8         -9.0612    0.7438   54.0896 C.ar    1  ZINC000938043669   -0.1300
      9 C9         -8.9711   -0.0542   52.9636 C.ar    1  ZINC000938043669   -0.1100
     10 C10        -9.9082   -1.0468   52.7420 C.ar    1  ZINC000938043669    0.0800
     11 F11        -9.8205   -1.8265   51.6423 F       1  ZINC000938043669   -0.1300
     12 N12       -12.7640   -4.4961   54.9867 N.am    1  ZINC000938043669   -0.6200
     13 C13       -13.7206   -5.4154   55.6200 C.3     1  ZINC000938043669    0.1000
     14 C14       -13.8350   -5.0070   57.1037 C.3     1  ZINC000938043669   -0.1400
     15 C15       -12.5111   -4.2379   57.3556 C.3     1  ZINC000938043669    0.1300
     16 H16       -11.6931   -4.9269   57.5659 H       1  ZINC000938043669    0.1100
     17 N17       -12.6669   -3.2654   58.4401 N.am    1  ZINC000938043669   -0.7200
     18 C18       -11.6465   -3.0344   59.2897 C.2     1  ZINC000938043669    0.5200
     19 O19       -10.5988   -3.6305   59.1556 O.2     1  ZINC000938043669   -0.5200
     20 C20       -11.8073   -2.0353   60.4064 C.3     1  ZINC000938043669   -0.1000
     21 H21       -12.3747   -2.4878   61.2195 H       1  ZINC000938043669    0.1000
     22 C22       -12.5546   -0.8053   59.8862 C.3     1  ZINC000938043669   -0.1100
     23 C23       -11.6726    0.4390   60.0511 C.3     1  ZINC000938043669   -0.0600
     24 H24       -12.1656    1.3196   59.6392 H       1  ZINC000938043669    0.0800
     25 C25       -10.3553    0.1746   59.3371 C.2     1  ZINC000938043669   -0.1800
     26 C26        -9.7053   -0.8951   59.7895 C.2     1  ZINC000938043669   -0.1300
     27 C27       -10.4240   -1.6158   60.9200 C.3     1  ZINC000938043669   -0.0400
     28 H28        -9.8482   -2.4781   61.2563 H       1  ZINC000938043669    0.0900
     29 C29       -10.6185   -0.6113   62.0641 C.3     1  ZINC000938043669   -0.1200
     30 C30       -11.3803    0.6283   61.5460 C.3     1  ZINC000938043669   -0.1100
     31 C31       -12.2975   -3.5294   55.9972 C.3     1  ZINC000938043669    0.1000
     32 H32       -10.4275   -3.6589   53.6877 H       1  ZINC000938043669    0.1000
     33 H33       -11.2466   -3.6645   52.1074 H       1  ZINC000938043669    0.1000
     34 H34       -11.8371   -0.5768   55.4797 H       1  ZINC000938043669    0.1400
     35 H35       -10.1585    1.1810   55.8706 H       1  ZINC000938043669    0.1300
     36 H36        -8.3260    1.5157   54.2634 H       1  ZINC000938043669    0.1400
     37 H37        -8.1661    0.0951   52.2593 H       1  ZINC000938043669    0.1500
     38 H38       -14.6935   -5.3296   55.1359 H       1  ZINC000938043669    0.0800
     39 H39       -13.3558   -6.4398   55.5445 H       1  ZINC000938043669    0.0800
     40 H40       -14.6950   -4.3555   57.2593 H       1  ZINC000938043669    0.0900
     41 H41       -13.8967   -5.8880   57.7426 H       1  ZINC000938043669    0.1000
     42 H42       -13.5044   -2.7877   58.5465 H       1  ZINC000938043669    0.4000
     43 H43       -12.7929   -0.9442   58.8317 H       1  ZINC000938043669    0.0700
     44 H44       -13.4767   -0.6743   60.4524 H       1  ZINC000938043669    0.0800
     45 H45        -9.9821    0.7973   58.5373 H       1  ZINC000938043669    0.1200
     46 H46        -8.7562   -1.2214   59.3905 H       1  ZINC000938043669    0.1200
     47 H47       -11.1970   -1.0770   62.8618 H       1  ZINC000938043669    0.0700
     48 H48        -9.6453   -0.3085   62.4508 H       1  ZINC000938043669    0.0700
     49 H49       -10.7644    1.5169   61.6843 H       1  ZINC000938043669    0.0700
     50 H50       -12.3106    0.7415   62.1023 H       1  ZINC000938043669    0.0700
     51 H51       -11.2418   -3.3014   55.8502 H       1  ZINC000938043669    0.0900
     52 H52       -12.8938   -2.6183   55.9467 H       1  ZINC000938043669    0.0700
@<TRIPOS>BOND
     1     1     2    2
     2     2     3    1
     3     2    12   am
     4     3     4    1
     5     3    32    1
     6     3    33    1
     7     4     5    1
     8     5    10   ar
     9     5     6   ar
    10     6     7   ar
    11     6    34    1
    12     7     8   ar
    13     7    35    1
    14     8     9   ar
    15     8    36    1
    16     9    10   ar
    17     9    37    1
    18    10    11    1
    19    12    31    1
    20    12    13    1
    21    13    14    1
    22    13    38    1
    23    13    39    1
    24    14    15    1
    25    14    40    1
    26    14    41    1
    27    15    16    1
    28    15    17    1
    29    15    31    1
    30    17    18   am
    31    17    42    1
    32    18    19    2
    33    18    20    1
    34    20    21    1
    35    20    27    1
    36    20    22    1
    37    22    23    1
    38    22    43    1
    39    22    44    1
    40    23    24    1
    41    23    30    1
    42    23    25    1
    43    25    26    2
    44    25    45    1
    45    26    27    1
    46    26    46    1
    47    27    28    1
    48    27    29    1
    49    29    30    1
    50    29    47    1
    51    29    48    1
    52    30    49    1
    53    30    50    1
    54    31    51    1
    55    31    52    1
@<TRIPOS>SUBSTRUCTURE
     1 ZINC000938043669        1 TEMP              0 ****  ****    0 ROOT


##########                                Name:    ZINC001436455587
##########                DOCK_Rotatable_Bonds:                   9
##########                         Heavy_Atoms:                  21
##########                    Molecular_Weight:             378.693
##########                DOCK_Rotatable_Bonds:                   9
##########                       Formal_Charge:          -0.0200001
##########                     HBond_Acceptors:                   5
##########                        HBond_Donors:                   1
##########                         Heavy_Atoms:                  21
##########                          Grid_Score:          -33.217670
##########                     Grid_vdw_energy:          -33.119526
##########                      Grid_es_energy:           -0.098146
##########           Internal_energy_repulsive:           14.958344

@<TRIPOS>MOLECULE
ZINC001436455587
 42 42 1 0 0
SMALL
USER_CHARGES


@<TRIPOS>ATOM
      1 C1        -14.1228   -3.3908   53.7576 C.3     1  ZINC001436455587   -0.1500
      2 C2        -13.1852   -4.5273   54.1700 C.3     1  ZINC001436455587   -0.1300
      3 C3        -13.8845   -5.4174   55.1994 C.3     1  ZINC001436455587   -0.1400
      4 C4        -13.9675   -4.6809   56.5378 C.3     1  ZINC001436455587    0.0800
      5 H5        -14.2643   -3.6462   56.3654 H       1  ZINC001436455587    0.0700
      6 C6        -12.5996   -4.7116   57.2226 C.3     1  ZINC001436455587    0.1200
      7 N7        -12.4083   -3.4767   57.9871 N.am    1  ZINC001436455587   -0.7200
      8 C8        -11.8400   -2.4035   57.4024 C.2     1  ZINC001436455587    0.5200
      9 O9        -11.4883   -2.4597   56.2431 O.2     1  ZINC001436455587   -0.5100
     10 C10       -11.6415   -1.1336   58.1893 C.3     1  ZINC001436455587    0.0600
     11 H11       -12.2871   -1.1457   59.0675 H       1  ZINC001436455587    0.1000
     12 C12       -11.9950    0.0698   57.3131 C.3     1  ZINC001436455587   -0.1800
     13 O13       -10.2770   -1.0376   58.6026 O.3     1  ZINC001436455587   -0.2700
     14 C14       -10.0440   -0.8935   59.9340 C.ar    1  ZINC001436455587    0.1600
     15 C15       -10.3931    0.2849   60.5763 C.ar    1  ZINC001436455587   -0.2000
     16 C16       -10.1559    0.4295   61.9300 C.ar    1  ZINC001436455587   -0.0500
     17 C17        -9.5702   -0.5999   62.6448 C.ar    1  ZINC001436455587   -0.0700
     18 Cl18       -9.2729   -0.4151   64.3451 Cl      1  ZINC001436455587   -0.0600
     19 C19        -9.2212   -1.7771   62.0063 C.ar    1  ZINC001436455587   -0.0400
     20 C20        -9.4615   -1.9278   60.6537 C.ar    1  ZINC001436455587   -0.1200
     21 Br21       -8.9847   -3.5364   59.7814 Br      1  ZINC001436455587   -0.0100
     22 O22       -14.9335   -5.3204   57.3745 O.3     1  ZINC001436455587   -0.3800
     23 C23       -15.3924   -4.5090   58.4577 C.3     1  ZINC001436455587    0.0200
     24 H24       -15.0297   -3.8086   53.3203 H       1  ZINC001436455587    0.0500
     25 H25       -14.3823   -2.7975   54.6345 H       1  ZINC001436455587    0.0600
     26 H26       -13.6247   -2.7567   53.0243 H       1  ZINC001436455587    0.0600
     27 H27       -12.9258   -5.1206   53.2932 H       1  ZINC001436455587    0.0600
     28 H28       -12.2783   -4.1095   54.6073 H       1  ZINC001436455587    0.0700
     29 H29       -14.8903   -5.6536   54.8518 H       1  ZINC001436455587    0.0800
     30 H30       -13.3180   -6.3397   55.3267 H       1  ZINC001436455587    0.0800
     31 H31       -12.5496   -5.5673   57.8961 H       1  ZINC001436455587    0.0800
     32 H32       -11.8175   -4.7969   56.4683 H       1  ZINC001436455587    0.0800
     33 H33       -12.6906   -3.4313   58.9140 H       1  ZINC001436455587    0.4000
     34 H34       -11.8514    0.9883   57.8823 H       1  ZINC001436455587    0.0800
     35 H35       -11.3494    0.0820   56.4349 H       1  ZINC001436455587    0.0800
     36 H36       -13.0358   -0.0034   56.9979 H       1  ZINC001436455587    0.0800
     37 H37       -10.8497    1.0892   60.0188 H       1  ZINC001436455587    0.1500
     38 H38       -10.4277    1.3472   62.4303 H       1  ZINC001436455587    0.1400
     39 H39        -8.7644   -2.5798   62.5661 H       1  ZINC001436455587    0.1500
     40 H40       -15.9341   -3.6492   58.0635 H       1  ZINC001436455587    0.0500
     41 H41       -16.0547   -5.0948   59.0951 H       1  ZINC001436455587    0.0900
     42 H42       -14.5382   -4.1643   59.0405 H       1  ZINC001436455587    0.0400
@<TRIPOS>BOND
     1     1     2    1
     2     1    24    1
     3     1    25    1
     4     1    26    1
     5     2     3    1
     6     2    27    1
     7     2    28    1
     8     3     4    1
     9     3    29    1
    10     3    30    1
    11     4     5    1
    12     4     6    1
    13     4    22    1
    14     6     7    1
    15     6    31    1
    16     6    32    1
    17     7     8   am
    18     7    33    1
    19     8     9    2
    20     8    10    1
    21    10    11    1
    22    10    12    1
    23    10    13    1
    24    12    34    1
    25    12    35    1
    26    12    36    1
    27    13    14    1
    28    14    20   ar
    29    14    15   ar
    30    15    16   ar
    31    15    37    1
    32    16    17   ar
    33    16    38    1
    34    17    18    1
    35    17    19   ar
    36    19    20   ar
    37    19    39    1
    38    20    21    1
    39    22    23    1
    40    23    40    1
    41    23    41    1
    42    23    42    1
@<TRIPOS>SUBSTRUCTURE
     1 ZINC001436455587        1 TEMP              0 ****  ****    0 ROOT


##########                                Name:    ZINC001193456967
##########                DOCK_Rotatable_Bonds:                   3
##########                         Heavy_Atoms:                  27
##########                    Molecular_Weight:             392.451
##########                DOCK_Rotatable_Bonds:                   3
##########                       Formal_Charge:           0.0300002
##########                     HBond_Acceptors:                   8
##########                        HBond_Donors:                   0
##########                         Heavy_Atoms:                  27
##########                          Grid_Score:          -33.212429
##########                     Grid_vdw_energy:          -33.111340
##########                      Grid_es_energy:           -0.101090
##########           Internal_energy_repulsive:           38.275959

@<TRIPOS>MOLECULE
ZINC001193456967
 48 50 1 0 0
SMALL
USER_CHARGES


@<TRIPOS>ATOM
      1 C1         -9.2364   -3.6894   59.6134 C.3     1  ZINC001193456967   -0.1400
      2 C2        -10.3131   -3.8307   58.5686 C.ar    1  ZINC001193456967    0.0300
      3 C3        -10.8288   -5.0783   58.2719 C.ar    1  ZINC001193456967   -0.1400
      4 C4        -11.8166   -5.2079   57.3133 C.ar    1  ZINC001193456967    0.0300
      5 C5        -12.2887   -4.0899   56.6521 C.ar    1  ZINC001193456967   -0.6900
      6 S6        -13.5473   -4.2551   55.4300 S.o2    1  ZINC001193456967    2.7100
      7 O7        -13.6639   -5.6451   55.1593 O.2     1  ZINC001193456967   -0.9300
      8 O8        -14.6371   -3.4540   55.8656 O.2     1  ZINC001193456967   -0.9400
      9 N9        -12.9776   -3.5545   54.0418 N.am    1  ZINC001193456967   -1.0000
     10 C10       -11.7662   -3.9631   53.3076 C.3     1  ZINC001193456967    0.1100
     11 C11       -11.3341   -2.7002   52.5215 C.3     1  ZINC001193456967   -0.1200
     12 C12       -12.7067   -2.0995   52.1183 C.3     1  ZINC001193456967   -0.0500
     13 H13       -13.0910   -2.5840   51.2207 H       1  ZINC001193456967    0.1000
     14 C14       -12.5974   -0.6106   51.9128 C.ar    1  ZINC001193456967   -0.0800
     15 C15       -13.3395    0.0063   50.9228 C.ar    1  ZINC001193456967   -0.0800
     16 C16       -13.2400    1.3716   50.7334 C.ar    1  ZINC001193456967   -0.1500
     17 C17       -12.3971    2.1218   51.5357 C.ar    1  ZINC001193456967    0.1000
     18 F18       -12.2995    3.4566   51.3517 F       1  ZINC001193456967   -0.1400
     19 C19       -11.6547    1.5029   52.5271 C.ar    1  ZINC001193456967   -0.1500
     20 C20       -11.7594    0.1382   52.7179 C.ar    1  ZINC001193456967   -0.0800
     21 C21       -13.5998   -2.4261   53.3338 C.3     1  ZINC001193456967    0.1900
     22 C22       -15.0031   -2.8098   52.8603 C.3     1  ZINC001193456967   -0.1800
     23 C23       -13.6748   -1.2143   54.2649 C.3     1  ZINC001193456967   -0.1800
     24 C24       -11.7739   -2.8417   56.9497 C.ar    1  ZINC001193456967    0.0400
     25 C25       -10.7891   -2.7117   57.9108 C.ar    1  ZINC001193456967   -0.0600
     26 N26       -10.2378   -1.3755   58.2295 N.pl3   1  ZINC001193456967    0.0200
     27 O27        -9.9492   -1.0941   59.3789 O.2     1  ZINC001193456967   -0.1400
     28 O28       -10.0730   -0.5573   57.3424 O.2     1  ZINC001193456967   -0.1500
     29 H29        -9.6906   -3.4365   60.5715 H       1  ZINC001193456967    0.1100
     30 H30        -8.6939   -4.6304   59.7057 H       1  ZINC001193456967    0.0900
     31 H31        -8.5457   -2.8993   59.3189 H       1  ZINC001193456967    0.0800
     32 H32       -10.4598   -5.9520   58.7887 H       1  ZINC001193456967    0.1600
     33 H33       -12.2191   -6.1829   57.0811 H       1  ZINC001193456967    0.1600
     34 H34       -10.9833   -4.2625   54.0044 H       1  ZINC001193456967    0.0900
     35 H35       -11.9955   -4.7776   52.6206 H       1  ZINC001193456967    0.0700
     36 H36       -10.7794   -2.0129   53.1604 H       1  ZINC001193456967    0.0900
     37 H37       -10.7512   -2.9689   51.6404 H       1  ZINC001193456967    0.0900
     38 H38       -13.9969   -0.5791   50.2971 H       1  ZINC001193456967    0.1400
     39 H39       -13.8194    1.8532   49.9595 H       1  ZINC001193456967    0.1400
     40 H40       -10.9966    2.0871   53.1533 H       1  ZINC001193456967    0.1400
     41 H41       -11.1806   -0.3448   53.4913 H       1  ZINC001193456967    0.1300
     42 H42       -14.9417   -3.6851   52.2137 H       1  ZINC001193456967    0.0700
     43 H43       -15.6278   -3.0390   53.7236 H       1  ZINC001193456967    0.0600
     44 H44       -15.4395   -1.9787   52.3064 H       1  ZINC001193456967    0.0800
     45 H45       -13.9959   -0.3402   53.6984 H       1  ZINC001193456967    0.0800
     46 H46       -14.3902   -1.4130   55.0629 H       1  ZINC001193456967    0.0900
     47 H47       -12.6917   -1.0265   54.6967 H       1  ZINC001193456967    0.0700
     48 H48       -12.1431   -1.9681   56.4332 H       1  ZINC001193456967    0.1600
@<TRIPOS>BOND
     1     1     2    1
     2     1    29    1
     3     1    30    1
     4     1    31    1
     5     2    25   ar
     6     2     3   ar
     7     3     4   ar
     8     3    32    1
     9     4     5   ar
    10     4    33    1
    11     5     6    1
    12     5    24   ar
    13     6     7    2
    14     6     8    2
    15     6     9   am
    16     9    21    1
    17     9    10    1
    18    10    11    1
    19    10    34    1
    20    10    35    1
    21    11    12    1
    22    11    36    1
    23    11    37    1
    24    12    13    1
    25    12    14    1
    26    12    21    1
    27    14    20   ar
    28    14    15   ar
    29    15    16   ar
    30    15    38    1
    31    16    17   ar
    32    16    39    1
    33    17    18    1
    34    17    19   ar
    35    19    20   ar
    36    19    40    1
    37    20    41    1
    38    21    22    1
    39    21    23    1
    40    22    42    1
    41    22    43    1
    42    22    44    1
    43    23    45    1
    44    23    46    1
    45    23    47    1
    46    24    25   ar
    47    24    48    1
    48    25    26    1
    49    26    27    2
    50    26    28    2
@<TRIPOS>SUBSTRUCTURE
     1 ZINC001193456967        1 TEMP              0 ****  ****    0 ROOT


##########                                Name:    ZINC001122903793
##########                DOCK_Rotatable_Bonds:                   4
##########                         Heavy_Atoms:                  25
##########                    Molecular_Weight:             399.968
##########                DOCK_Rotatable_Bonds:                   4
##########                       Formal_Charge:           0.0100003
##########                     HBond_Acceptors:                   9
##########                        HBond_Donors:                   0
##########                         Heavy_Atoms:                  25
##########                          Grid_Score:          -33.212315
##########                     Grid_vdw_energy:          -33.182613
##########                      Grid_es_energy:           -0.029700
##########           Internal_energy_repulsive:           16.806227

@<TRIPOS>MOLECULE
ZINC001122903793
 47 50 1 0 0
SMALL
USER_CHARGES


@<TRIPOS>ATOM
      1 C1        -10.9380    0.2822   61.9690 C.3     1  ZINC001122903793   -0.1400
      2 C2        -10.8703   -1.0138   61.1585 C.3     1  ZINC001122903793   -0.0400
      3 H3        -11.7510   -1.6217   61.3659 H       1  ZINC001122903793    0.1000
      4 S4         -9.3698   -1.9383   61.6084 S.3     1  ZINC001122903793   -0.2500
      5 C5         -9.3534   -3.2591   60.3579 C.3     1  ZINC001122903793   -0.0800
      6 C6         -9.5001   -2.6195   58.9730 C.3     1  ZINC001122903793    0.0700
      7 N7        -10.7842   -1.9212   58.8808 N.3     1  ZINC001122903793   -0.4800
      8 C8        -11.1245   -1.6800   57.5598 C.2     1  ZINC001122903793    0.3700
      9 N9        -10.6368   -0.7346   56.7908 N.2     1  ZINC001122903793   -0.2900
     10 N10       -11.1695   -0.7949   55.6230 N.2     1  ZINC001122903793   -0.2400
     11 C11       -12.0327   -1.7854   55.5746 C.2     1  ZINC001122903793    0.2600
     12 C12       -12.8478   -2.1808   54.4142 C.2     1  ZINC001122903793   -0.1600
     13 C13       -12.4438   -2.9607   53.3836 C.2     1  ZINC001122903793    0.1600
     14 Cl14      -10.8461   -3.6315   53.2775 Cl      1  ZINC001122903793    0.0300
     15 N15       -13.3666   -3.1655   52.4704 N.2     1  ZINC001122903793   -0.4600
     16 C16       -14.5192   -2.6137   52.6586 C.2     1  ZINC001122903793    0.0300
     17 S17       -14.5260   -1.7302   54.1220 S.3     1  ZINC001122903793    0.2200
     18 N18       -12.0260   -2.3858   56.8136 N.pl3   1  ZINC001122903793   -0.4600
     19 C19       -12.8241   -3.5364   57.2444 C.3     1  ZINC001122903793    0.1100
     20 C20       -14.0806   -3.0442   57.9652 C.3     1  ZINC001122903793    0.0700
     21 H21       -14.4779   -2.1584   57.4697 H       1  ZINC001122903793    0.0800
     22 C22       -15.1511   -4.1638   58.0051 C.3     1  ZINC001122903793   -0.1500
     23 C23       -15.9778   -3.7371   59.2487 C.3     1  ZINC001122903793   -0.1500
     24 C24       -14.8971   -3.1269   60.1670 C.3     1  ZINC001122903793    0.0500
     25 O25       -13.7855   -2.7556   59.3411 O.3     1  ZINC001122903793   -0.3700
     26 C26       -10.8131   -0.6835   59.6632 C.3     1  ZINC001122903793    0.1000
     27 H27        -9.9123   -0.1047   59.4588 H       1  ZINC001122903793    0.0800
     28 C28       -12.0440    0.1367   59.2718 C.3     1  ZINC001122903793   -0.1500
     29 H29       -11.8343    0.8374   61.6924 H       1  ZINC001122903793    0.0800
     30 H30       -10.9715    0.0444   63.0323 H       1  ZINC001122903793    0.0700
     31 H31       -10.0563    0.8880   61.7598 H       1  ZINC001122903793    0.0700
     32 H32        -8.4104   -3.8031   60.4121 H       1  ZINC001122903793    0.1200
     33 H33       -10.1841   -3.9421   60.5357 H       1  ZINC001122903793    0.0900
     34 H34        -8.6890   -1.9087   58.8146 H       1  ZINC001122903793    0.0700
     35 H35        -9.4541   -3.3956   58.2090 H       1  ZINC001122903793    0.0900
     36 H36       -15.3612   -2.7017   51.9881 H       1  ZINC001122903793    0.2100
     37 H37       -13.1120   -4.1254   56.3736 H       1  ZINC001122903793    0.1200
     38 H38       -12.2348   -4.1541   57.9221 H       1  ZINC001122903793    0.1000
     39 H39       -15.7638   -4.1537   57.1037 H       1  ZINC001122903793    0.0900
     40 H40       -14.6921   -5.1410   58.1550 H       1  ZINC001122903793    0.0800
     41 H41       -16.7252   -2.9906   58.9801 H       1  ZINC001122903793    0.0800
     42 H42       -16.4440   -4.6023   59.7201 H       1  ZINC001122903793    0.0900
     43 H43       -15.2938   -2.2445   60.6692 H       1  ZINC001122903793    0.0700
     44 H44       -14.5806   -3.8634   60.9055 H       1  ZINC001122903793    0.0700
     45 H45       -12.9454   -0.4422   59.4731 H       1  ZINC001122903793    0.0600
     46 H46       -12.0666    1.0582   59.8536 H       1  ZINC001122903793    0.0800
     47 H47       -11.9970    0.3783   58.2100 H       1  ZINC001122903793    0.0600
@<TRIPOS>BOND
     1     1     2    1
     2     1    29    1
     3     1    30    1
     4     1    31    1
     5     2     3    1
     6     2    26    1
     7     2     4    1
     8     4     5    1
     9     5     6    1
    10     5    32    1
    11     5    33    1
    12     6     7    1
    13     6    34    1
    14     6    35    1
    15     7     8    1
    16     7    26    1
    17     8    18    1
    18     8     9    2
    19     9    10    1
    20    10    11    2
    21    11    12    1
    22    11    18    1
    23    12    17    1
    24    12    13    2
    25    13    14    1
    26    13    15    1
    27    15    16    2
    28    16    17    1
    29    16    36    1
    30    18    19    1
    31    19    20    1
    32    19    37    1
    33    19    38    1
    34    20    21    1
    35    20    25    1
    36    20    22    1
    37    22    23    1
    38    22    39    1
    39    22    40    1
    40    23    24    1
    41    23    41    1
    42    23    42    1
    43    24    25    1
    44    24    43    1
    45    24    44    1
    46    26    27    1
    47    26    28    1
    48    28    45    1
    49    28    46    1
    50    28    47    1
@<TRIPOS>SUBSTRUCTURE
     1 ZINC001122903793        1 TEMP              0 ****  ****    0 ROOT


##########                                Name:    ZINC000279452407
##########                DOCK_Rotatable_Bonds:                   6
##########                         Heavy_Atoms:                  24
##########                    Molecular_Weight:              375.47
##########                DOCK_Rotatable_Bonds:                   6
##########                       Formal_Charge:          0.00999929
##########                     HBond_Acceptors:                  10
##########                        HBond_Donors:                   3
##########                         Heavy_Atoms:                  24
##########                          Grid_Score:          -33.187943
##########                     Grid_vdw_energy:          -30.864630
##########                      Grid_es_energy:           -2.323312
##########           Internal_energy_repulsive:           26.427776

@<TRIPOS>MOLECULE
ZINC000279452407
 45 47 1 0 0
SMALL
USER_CHARGES


@<TRIPOS>ATOM
      1 C1         -0.6674    0.3135   47.2954 C.3     1  ZINC000279452407   -0.1600
      2 C2         -0.7306    1.5733   48.1614 C.3     1  ZINC000279452407    0.0600
      3 H3          0.1293    2.2100   47.9534 H       1  ZINC000279452407    0.0700
      4 O4         -0.7462    1.2104   49.5538 O.3     1  ZINC000279452407   -0.3700
      5 C5         -1.5734    2.1799   50.2334 C.3     1  ZINC000279452407    0.0500
      6 C6         -2.7455    2.4142   49.2450 C.3     1  ZINC000279452407   -0.1400
      7 C7         -2.0302    2.3400   47.8754 C.3     1  ZINC000279452407    0.0700
      8 C8         -2.8925    1.5697   46.8787 C.3     1  ZINC000279452407    0.1100
      9 N9         -2.2699    1.6711   45.5479 N.am    1  ZINC000279452407   -0.6300
     10 C10        -2.0647    0.5748   44.7912 C.2     1  ZINC000279452407    0.7200
     11 O11        -2.3949   -0.5198   45.2048 O.2     1  ZINC000279452407   -0.5800
     12 N12        -1.4935    0.6919   43.5761 N.am    1  ZINC000279452407   -0.7500
     13 C13        -1.2705   -0.4997   42.7538 C.3     1  ZINC000279452407    0.2000
     14 C14        -0.2083   -0.2085   41.7250 C.2     1  ZINC000279452407   -0.1700
     15 C15        -0.3713   -0.3001   40.4043 C.2     1  ZINC000279452407   -0.1400
     16 C16         0.7482    0.0180   39.6550 C.2     1  ZINC000279452407    0.0100
     17 C17         1.8204    0.3680   40.3672 C.2     1  ZINC000279452407   -0.7900
     18 S18         3.3829    0.8247   39.6929 S.o2    1  ZINC000279452407    2.7300
     19 N19         4.3123   -0.5448   39.6380 N.am    1  ZINC000279452407   -1.2500
     20 O20         3.1431    1.2012   38.3438 O.2     1  ZINC000279452407   -0.9600
     21 O21         3.9937    1.6864   40.6434 O.2     1  ZINC000279452407   -0.9500
     22 S22         1.4335    0.3115   42.0820 S.3     1  ZINC000279452407    0.2500
     23 C23        -1.8792    3.0070   45.0700 C.3     1  ZINC000279452407    0.0700
     24 C24        -1.0370    3.6847   46.1568 C.3     1  ZINC000279452407    0.0400
     25 O25        -1.7507    3.6496   47.3962 O.3     1  ZINC000279452407   -0.3600
     26 H26        -0.5648    0.5975   46.2480 H       1  ZINC000279452407    0.0700
     27 H27         0.1896   -0.2901   47.5939 H       1  ZINC000279452407    0.0600
     28 H28        -1.5823   -0.2642   47.4272 H       1  ZINC000279452407    0.0800
     29 H29        -1.9417    1.7759   51.1764 H       1  ZINC000279452407    0.1000
     30 H30        -1.0218    3.1050   50.4005 H       1  ZINC000279452407    0.0700
     31 H31        -3.4957    1.6287   49.3374 H       1  ZINC000279452407    0.1000
     32 H32        -3.1921    3.3968   49.3966 H       1  ZINC000279452407    0.1000
     33 H33        -2.9509    0.5230   47.1769 H       1  ZINC000279452407    0.1200
     34 H34        -3.8927    2.0018   46.8490 H       1  ZINC000279452407    0.0800
     35 H35        -1.2299    1.5652   43.2462 H       1  ZINC000279452407    0.4000
     36 H36        -0.9451   -1.3238   43.3886 H       1  ZINC000279452407    0.1000
     37 H37        -2.1981   -0.7730   42.2508 H       1  ZINC000279452407    0.0900
     38 H38        -1.3058   -0.6001   39.9537 H       1  ZINC000279452407    0.1600
     39 H39         0.7534   -0.0150   38.5754 H       1  ZINC000279452407    0.1600
     40 H40         4.0206   -1.3083   39.1157 H       1  ZINC000279452407    0.4200
     41 H41         5.1484   -0.5834   40.1284 H       1  ZINC000279452407    0.4200
     42 H42        -1.2914    2.9120   44.1570 H       1  ZINC000279452407    0.0900
     43 H43        -2.7716    3.6015   44.8743 H       1  ZINC000279452407    0.0900
     44 H44        -0.0904    3.1554   46.2667 H       1  ZINC000279452407    0.0600
     45 H45        -0.8454    4.7203   45.8761 H       1  ZINC000279452407    0.1100
@<TRIPOS>BOND
     1     1     2    1
     2     1    26    1
     3     1    27    1
     4     1    28    1
     5     2     3    1
     6     2     7    1
     7     2     4    1
     8     4     5    1
     9     5     6    1
    10     5    29    1
    11     5    30    1
    12     6     7    1
    13     6    31    1
    14     6    32    1
    15     7    25    1
    16     7     8    1
    17     8     9    1
    18     8    33    1
    19     8    34    1
    20     9    10   am
    21     9    23    1
    22    10    11    2
    23    10    12   am
    24    12    13    1
    25    12    35    1
    26    13    14    1
    27    13    36    1
    28    13    37    1
    29    14    22    1
    30    14    15    2
    31    15    16    1
    32    15    38    1
    33    16    17    2
    34    16    39    1
    35    17    18    1
    36    17    22    1
    37    18    19   am
    38    18    20    2
    39    18    21    2
    40    19    40    1
    41    19    41    1
    42    23    24    1
    43    23    42    1
    44    23    43    1
    45    24    25    1
    46    24    44    1
    47    24    45    1
@<TRIPOS>SUBSTRUCTURE
     1 ZINC000279452407        1 TEMP              0 ****  ****    0 ROOT


##########                                Name:    ZINC000624498741
##########                DOCK_Rotatable_Bonds:                   7
##########                         Heavy_Atoms:                  27
##########                    Molecular_Weight:             379.339
##########                DOCK_Rotatable_Bonds:                   7
##########                       Formal_Charge:           0.0300003
##########                     HBond_Acceptors:                   9
##########                        HBond_Donors:                   0
##########                         Heavy_Atoms:                  27
##########                          Grid_Score:          -33.169727
##########                     Grid_vdw_energy:          -31.940207
##########                      Grid_es_energy:           -1.229522
##########           Internal_energy_repulsive:            8.959469

@<TRIPOS>MOLECULE
ZINC000624498741
 43 45 1 0 0
SMALL
USER_CHARGES


@<TRIPOS>ATOM
      1 C1        -11.4246   -2.5738   52.0550 C.3     1  ZINC000624498741   -0.1100
      2 C2        -12.2195   -3.1122   53.2167 C.ar    1  ZINC000624498741   -0.0900
      3 C3        -11.5769   -3.4800   54.3781 C.ar    1  ZINC000624498741   -0.0400
      4 C4        -12.3148   -3.9786   55.4546 C.ar    1  ZINC000624498741   -0.0500
      5 C5        -11.6299   -4.3736   56.7017 C.2     1  ZINC000624498741    0.2300
      6 N6        -10.9427   -3.5843   57.5094 N.2     1  ZINC000624498741   -0.4700
      7 C7        -10.5094   -4.3759   58.5028 C.2     1  ZINC000624498741    0.1800
      8 C8         -9.6758   -3.9473   59.6826 C.3     1  ZINC000624498741   -0.0300
      9 C9        -10.3075   -2.7147   60.3325 C.3     1  ZINC000624498741   -0.1300
     10 C10        -9.4132   -1.4966   60.0924 C.3     1  ZINC000624498741    0.0900
     11 N11       -10.2257   -0.2783   60.1344 N.am    1  ZINC000624498741   -0.5000
     12 C12       -10.9074    0.0350   61.2658 C.2     1  ZINC000624498741    0.1300
     13 C13       -11.6649    1.1550   61.3285 C.2     1  ZINC000624498741   -0.2300
     14 C14       -11.7505    2.0051   60.2169 C.2     1  ZINC000624498741   -0.0200
     15 C15       -11.0645    1.6888   59.0812 C.2     1  ZINC000624498741   -0.2400
     16 C16       -10.2834    0.5209   59.0522 C.2     1  ZINC000624498741    0.5100
     17 O17        -9.6643    0.2259   58.0424 O.2     1  ZINC000624498741   -0.5500
     18 N18       -10.9397   -5.5795   58.2635 N.2     1  ZINC000624498741   -0.3700
     19 O19       -11.5888   -5.6029   57.2392 O.3     1  ZINC000624498741    0.0900
     20 C20       -13.7019   -4.1018   55.3482 C.ar    1  ZINC000624498741   -0.0200
     21 C21       -14.3371   -3.7317   54.1830 C.ar    1  ZINC000624498741   -0.1900
     22 C22       -13.6003   -3.2314   53.1167 C.ar    1  ZINC000624498741    0.1300
     23 O23       -14.2301   -2.8678   51.9701 O.3     1  ZINC000624498741   -0.3000
     24 C24       -15.1111   -1.7450   52.0417 C.3     1  ZINC000624498741    0.6000
     25 F25       -15.1914   -1.1344   50.7856 F       1  ZINC000624498741   -0.1600
     26 F26       -16.3835   -2.1749   52.4334 F       1  ZINC000624498741   -0.1300
     27 F27       -14.6210   -0.8266   52.9763 F       1  ZINC000624498741   -0.1600
     28 H28       -11.3419   -1.4905   52.1423 H       1  ZINC000624498741    0.0800
     29 H29       -10.4282   -3.0158   52.0605 H       1  ZINC000624498741    0.0800
     30 H30       -11.9287   -2.8258   51.1220 H       1  ZINC000624498741    0.0800
     31 H31       -10.5041   -3.3835   54.4564 H       1  ZINC000624498741    0.1500
     32 H32        -9.6307   -4.7583   60.4095 H       1  ZINC000624498741    0.1000
     33 H33        -8.6678   -3.7044   59.3463 H       1  ZINC000624498741    0.1000
     34 H34       -11.2897   -2.5361   59.8947 H       1  ZINC000624498741    0.0800
     35 H35       -10.4125   -2.8826   61.4044 H       1  ZINC000624498741    0.0800
     36 H36        -8.6477   -1.4497   60.8669 H       1  ZINC000624498741    0.1100
     37 H37        -8.9371   -1.5823   59.1156 H       1  ZINC000624498741    0.1000
     38 H38       -10.8449   -0.6163   62.1250 H       1  ZINC000624498741    0.1600
     39 H39       -12.2033    1.3934   62.2339 H       1  ZINC000624498741    0.1500
     40 H40       -12.3532    2.9003   60.2593 H       1  ZINC000624498741    0.1400
     41 H41       -11.1179    2.3312   58.2147 H       1  ZINC000624498741    0.1500
     42 H42       -14.2758   -4.4872   56.1780 H       1  ZINC000624498741    0.1500
     43 H43       -15.4097   -3.8270   54.0997 H       1  ZINC000624498741    0.1500
@<TRIPOS>BOND
     1     1     2    1
     2     1    28    1
     3     1    29    1
     4     1    30    1
     5     2    22   ar
     6     2     3   ar
     7     3     4   ar
     8     3    31    1
     9     4     5    1
    10     4    20   ar
    11     5    19    1
    12     5     6    2
    13     6     7    1
    14     7     8    1
    15     7    18    2
    16     8     9    1
    17     8    32    1
    18     8    33    1
    19     9    10    1
    20     9    34    1
    21     9    35    1
    22    10    11    1
    23    10    36    1
    24    10    37    1
    25    11    16   am
    26    11    12    1
    27    12    13    2
    28    12    38    1
    29    13    14    1
    30    13    39    1
    31    14    15    2
    32    14    40    1
    33    15    16    1
    34    15    41    1
    35    16    17    2
    36    18    19    1
    37    20    21   ar
    38    20    42    1
    39    21    22   ar
    40    21    43    1
    41    22    23    1
    42    23    24    1
    43    24    25    1
    44    24    26    1
    45    24    27    1
@<TRIPOS>SUBSTRUCTURE
     1 ZINC000624498741        1 TEMP              0 ****  ****    0 ROOT


##########                                Name:    ZINC000460972051
##########                DOCK_Rotatable_Bonds:                  10
##########                         Heavy_Atoms:                  29
##########                    Molecular_Weight:             417.572
##########                DOCK_Rotatable_Bonds:                  10
##########                       Formal_Charge:         3.31551e-07
##########                     HBond_Acceptors:                   7
##########                        HBond_Donors:                   2
##########                         Heavy_Atoms:                  29
##########                          Grid_Score:          -33.091278
##########                     Grid_vdw_energy:          -32.062931
##########                      Grid_es_energy:           -1.028347
##########           Internal_energy_repulsive:           40.623318

@<TRIPOS>MOLECULE
ZINC000460972051
 60 61 1 0 0
SMALL
USER_CHARGES


@<TRIPOS>ATOM
      1 C1        -16.2195    1.6508   49.0317 C.3     1  ZINC000460972051   -0.1800
      2 C2        -14.7687    1.2921   48.7041 C.3     1  ZINC000460972051    0.1000
      3 N3        -14.2794    0.3057   49.6706 N.am    1  ZINC000460972051   -0.6200
      4 C4        -13.9440    0.6927   50.9173 C.2     1  ZINC000460972051    0.7100
      5 O5        -14.0460    1.8607   51.2394 O.2     1  ZINC000460972051   -0.5800
      6 N6        -13.4955   -0.2150   51.8068 N.am    1  ZINC000460972051   -0.7400
      7 C7        -13.1324    0.2053   53.1625 C.3     1  ZINC000460972051    0.2000
      8 H8        -13.8289    0.9711   53.5041 H       1  ZINC000460972051    0.1100
      9 C9        -13.1964   -0.9989   54.1041 C.3     1  ZINC000460972051    0.1100
     10 N10       -12.8286   -2.2125   53.3705 N.am    1  ZINC000460972051   -1.1200
     11 S11       -13.1321   -3.7016   54.0283 S.o2    1  ZINC000460972051    2.7000
     12 O12       -14.5129   -3.7183   54.3636 O.2     1  ZINC000460972051   -0.9500
     13 O13       -12.5316   -4.6535   53.1607 O.2     1  ZINC000460972051   -0.9600
     14 C14       -12.2491   -3.7893   55.5505 C.ar    1  ZINC000460972051   -0.6900
     15 C15       -11.3266   -2.8117   55.8716 C.ar    1  ZINC000460972051   -0.0100
     16 C16       -10.6337   -2.8805   57.0661 C.ar    1  ZINC000460972051   -0.1500
     17 C17       -10.8641   -3.9267   57.9393 C.ar    1  ZINC000460972051   -0.0200
     18 C18       -10.1086   -4.0021   59.2411 C.3     1  ZINC000460972051   -0.1300
     19 C19       -11.7881   -4.9041   57.6188 C.ar    1  ZINC000460972051   -0.1500
     20 C20       -12.4834   -4.8332   56.4264 C.ar    1  ZINC000460972051    0.0300
     21 C21       -13.4905   -5.8983   56.0769 C.3     1  ZINC000460972051   -0.1700
     22 C22       -11.7333    0.7651   53.1572 C.ar    1  ZINC000460972051   -0.1000
     23 C23       -11.4952    2.0351   53.6485 C.ar    1  ZINC000460972051   -0.1000
     24 C24       -10.2118    2.5487   53.6436 C.ar    1  ZINC000460972051   -0.1200
     25 C25        -9.1664    1.7921   53.1479 C.ar    1  ZINC000460972051   -0.1200
     26 C26        -9.4044    0.5218   52.6575 C.ar    1  ZINC000460972051   -0.1200
     27 C27       -10.6872    0.0066   52.6663 C.ar    1  ZINC000460972051   -0.1000
     28 C28       -14.1548   -1.1012   49.2819 C.3     1  ZINC000460972051    0.1500
     29 C29       -15.2607   -1.9163   49.9553 C.3     1  ZINC000460972051   -0.1600
     30 C30       -14.2841   -1.2240   47.7623 C.3     1  ZINC000460972051   -0.1600
     31 H31       -16.5836    2.3846   48.3125 H       1  ZINC000460972051    0.0700
     32 H32       -16.8363    0.7536   48.9790 H       1  ZINC000460972051    0.0600
     33 H33       -16.2723    2.0695   50.0365 H       1  ZINC000460972051    0.0700
     34 H34       -14.7158    0.8733   47.6991 H       1  ZINC000460972051    0.0700
     35 H35       -14.1518    2.1893   48.7568 H       1  ZINC000460972051    0.0900
     36 H36       -13.4129   -1.1466   51.5494 H       1  ZINC000460972051    0.4000
     37 H37       -12.5026   -0.8502   54.9316 H       1  ZINC000460972051    0.0900
     38 H38       -14.2092   -1.1025   54.4932 H       1  ZINC000460972051    0.0900
     39 H39       -12.4073   -2.1438   52.4994 H       1  ZINC000460972051    0.4200
     40 H40       -11.1465   -1.9941   55.1893 H       1  ZINC000460972051    0.1400
     41 H41        -9.9122   -2.1169   57.3167 H       1  ZINC000460972051    0.1300
     42 H42       -10.6650   -3.4735   60.0152 H       1  ZINC000460972051    0.0800
     43 H43        -9.9861   -5.0459   59.5302 H       1  ZINC000460972051    0.0700
     44 H44        -9.1283   -3.5414   59.1194 H       1  ZINC000460972051    0.0700
     45 H45       -11.9684   -5.7214   58.3012 H       1  ZINC000460972051    0.1300
     46 H46       -14.4881   -5.5615   56.3586 H       1  ZINC000460972051    0.0900
     47 H47       -13.4607   -6.0887   55.0041 H       1  ZINC000460972051    0.1000
     48 H48       -13.2512   -6.8153   56.6155 H       1  ZINC000460972051    0.0900
     49 H49       -12.3119    2.6262   54.0357 H       1  ZINC000460972051    0.1200
     50 H50       -10.0259    3.5412   54.0267 H       1  ZINC000460972051    0.1200
     51 H51        -8.1638    2.1936   53.1434 H       1  ZINC000460972051    0.1200
     52 H52        -8.5878   -0.0692   52.2699 H       1  ZINC000460972051    0.1200
     53 H53       -10.8730   -0.9859   52.2831 H       1  ZINC000460972051    0.1200
     54 H54       -13.1821   -1.4800   49.5956 H       1  ZINC000460972051    0.1000
     55 H55       -15.1687   -1.8289   51.0379 H       1  ZINC000460972051    0.0600
     56 H56       -16.2335   -1.5375   49.6417 H       1  ZINC000460972051    0.0600
     57 H57       -15.1681   -2.9631   49.6661 H       1  ZINC000460972051    0.0700
     58 H58       -13.4962   -0.6434   47.2826 H       1  ZINC000460972051    0.0600
     59 H59       -14.1913   -2.2708   47.4731 H       1  ZINC000460972051    0.0700
     60 H60       -15.2568   -0.8453   47.4487 H       1  ZINC000460972051    0.0600
@<TRIPOS>BOND
     1     1     2    1
     2     1    31    1
     3     1    32    1
     4     1    33    1
     5     2     3    1
     6     2    34    1
     7     2    35    1
     8     3     4   am
     9     3    28    1
    10     4     5    2
    11     4     6   am
    12     6     7    1
    13     6    36    1
    14     7     8    1
    15     7     9    1
    16     7    22    1
    17     9    10    1
    18     9    37    1
    19     9    38    1
    20    10    11   am
    21    10    39    1
    22    11    12    2
    23    11    13    2
    24    11    14    1
    25    14    20   ar
    26    14    15   ar
    27    15    16   ar
    28    15    40    1
    29    16    17   ar
    30    16    41    1
    31    17    18    1
    32    17    19   ar
    33    18    42    1
    34    18    43    1
    35    18    44    1
    36    19    20   ar
    37    19    45    1
    38    20    21    1
    39    21    46    1
    40    21    47    1
    41    21    48    1
    42    22    27   ar
    43    22    23   ar
    44    23    24   ar
    45    23    49    1
    46    24    25   ar
    47    24    50    1
    48    25    26   ar
    49    25    51    1
    50    26    27   ar
    51    26    52    1
    52    27    53    1
    53    28    29    1
    54    28    30    1
    55    28    54    1
    56    29    55    1
    57    29    56    1
    58    29    57    1
    59    30    58    1
    60    30    59    1
    61    30    60    1
@<TRIPOS>SUBSTRUCTURE
     1 ZINC000460972051        1 TEMP              0 ****  ****    0 ROOT


##########                                Name:    ZINC000288921983
##########                DOCK_Rotatable_Bonds:                   6
##########                         Heavy_Atoms:                  26
##########                    Molecular_Weight:             356.428
##########                DOCK_Rotatable_Bonds:                   6
##########                       Formal_Charge:           0.0199997
##########                     HBond_Acceptors:                   8
##########                        HBond_Donors:                   1
##########                         Heavy_Atoms:                  26
##########                          Grid_Score:          -33.054981
##########                     Grid_vdw_energy:          -32.291943
##########                      Grid_es_energy:           -0.763040
##########           Internal_energy_repulsive:           60.192268

@<TRIPOS>MOLECULE
ZINC000288921983
 50 53 1 0 0
SMALL
USER_CHARGES


@<TRIPOS>ATOM
      1 C1        -16.1757   -1.2938   64.9390 C.3     1  ZINC000288921983   -0.1400
      2 C2        -15.5551   -0.4168   63.8497 C.3     1  ZINC000288921983   -0.0500
      3 C3        -15.3775   -1.2280   62.5921 C.ar    1  ZINC000288921983    0.3000
      4 N4        -16.1587   -0.9854   61.5587 N.ar    1  ZINC000288921983   -0.5000
      5 C5        -16.0346   -1.6752   60.4369 C.ar    1  ZINC000288921983    0.1300
      6 C6        -15.0621   -2.6684   60.3589 C.ar    1  ZINC000288921983    0.0500
      7 N7        -14.8968   -3.4216   59.1904 N.am    1  ZINC000288921983   -0.6700
      8 C8        -13.6982   -3.4565   58.5750 C.2     1  ZINC000288921983    0.7100
      9 O9        -12.7605   -2.8337   59.0346 O.2     1  ZINC000288921983   -0.5500
     10 N10       -13.5391   -4.1816   57.4501 N.am    1  ZINC000288921983   -0.6200
     11 C11       -14.6628   -4.9392   56.8827 C.3     1  ZINC000288921983    0.1100
     12 C12       -14.8341   -4.5409   55.4134 C.3     1  ZINC000288921983   -0.1400
     13 C13       -13.5070   -4.7389   54.6773 C.3     1  ZINC000288921983   -0.1200
     14 C14       -12.4371   -3.8391   55.3002 C.3     1  ZINC000288921983   -0.1300
     15 C15       -12.2402   -4.2246   56.7648 C.3     1  ZINC000288921983    0.2700
     16 H16       -11.8350   -5.2347   56.8254 H       1  ZINC000288921983    0.1100
     17 C17       -11.2867   -3.2576   57.4179 C.2     1  ZINC000288921983    0.1700
     18 N18       -10.3490   -3.5571   58.2712 N.2     1  ZINC000288921983   -0.2500
     19 N19        -9.7298   -2.4843   58.6193 N.2     1  ZINC000288921983   -0.2700
     20 C20       -10.2514   -1.4638   57.9998 C.2     1  ZINC000288921983    0.1800
     21 C21        -9.8177   -0.0262   58.1274 C.3     1  ZINC000288921983   -0.0300
     22 C22       -10.4445    0.9022   57.0740 C.3     1  ZINC000288921983   -0.1200
     23 C23       -11.6052    1.1092   58.0612 C.3     1  ZINC000288921983   -0.1400
     24 C24       -10.6098    0.7649   59.1817 C.3     1  ZINC000288921983   -0.1200
     25 O25       -11.2438   -1.9289   57.2225 O.3     1  ZINC000288921983   -0.2200
     26 C26       -14.2579   -2.8925   61.4731 C.ar    1  ZINC000288921983    0.1600
     27 N27       -14.4420   -2.1556   62.5559 N.ar    1  ZINC000288921983   -0.5000
     28 H28       -16.3041   -0.7071   65.8485 H       1  ZINC000288921983    0.0700
     29 H29       -17.1460   -1.6592   64.6023 H       1  ZINC000288921983    0.0600
     30 H30       -15.5193   -2.1400   65.1420 H       1  ZINC000288921983    0.0600
     31 H31       -16.2114    0.4294   63.6466 H       1  ZINC000288921983    0.0900
     32 H32       -14.5849   -0.0515   64.1863 H       1  ZINC000288921983    0.0900
     33 H33       -16.6785   -1.4713   59.5942 H       1  ZINC000288921983    0.1700
     34 H34       -15.6449   -3.9184   58.8238 H       1  ZINC000288921983    0.4100
     35 H35       -14.4545   -6.0071   56.9498 H       1  ZINC000288921983    0.0800
     36 H36       -15.5747   -4.7073   57.4328 H       1  ZINC000288921983    0.0800
     37 H37       -15.6013   -5.1645   54.9545 H       1  ZINC000288921983    0.0900
     38 H38       -15.1312   -3.4939   55.3526 H       1  ZINC000288921983    0.0700
     39 H39       -13.1980   -5.7809   54.7595 H       1  ZINC000288921983    0.0700
     40 H40       -13.6327   -4.4794   53.6261 H       1  ZINC000288921983    0.0800
     41 H41       -11.4982   -3.9633   54.7605 H       1  ZINC000288921983    0.0900
     42 H42       -12.7568   -2.7988   55.2404 H       1  ZINC000288921983    0.0900
     43 H43        -8.7372    0.0831   58.2203 H       1  ZINC000288921983    0.1000
     44 H44        -9.8638    1.8056   56.8873 H       1  ZINC000288921983    0.1000
     45 H45       -10.7367    0.3888   56.1580 H       1  ZINC000288921983    0.0800
     46 H46       -11.9678    2.1363   58.0997 H       1  ZINC000288921983    0.0700
     47 H47       -12.4077    0.3798   57.9508 H       1  ZINC000288921983    0.1000
     48 H48       -11.0354    0.1406   59.9673 H       1  ZINC000288921983    0.0700
     49 H49       -10.0743    1.6307   59.5713 H       1  ZINC000288921983    0.1000
     50 H50       -13.4925   -3.6542   61.4522 H       1  ZINC000288921983    0.1800
@<TRIPOS>BOND
     1     1     2    1
     2     1    28    1
     3     1    29    1
     4     1    30    1
     5     2     3    1
     6     2    31    1
     7     2    32    1
     8     3    27   ar
     9     3     4   ar
    10     4     5   ar
    11     5     6   ar
    12     5    33    1
    13     6     7    1
    14     6    26   ar
    15     7     8   am
    16     7    34    1
    17     8     9    2
    18     8    10   am
    19    10    15    1
    20    10    11    1
    21    11    12    1
    22    11    35    1
    23    11    36    1
    24    12    13    1
    25    12    37    1
    26    12    38    1
    27    13    14    1
    28    13    39    1
    29    13    40    1
    30    14    15    1
    31    14    41    1
    32    14    42    1
    33    15    16    1
    34    15    17    1
    35    17    25    1
    36    17    18    2
    37    18    19    1
    38    19    20    2
    39    20    21    1
    40    20    25    1
    41    21    24    1
    42    21    22    1
    43    21    43    1
    44    22    23    1
    45    22    44    1
    46    22    45    1
    47    23    24    1
    48    23    46    1
    49    23    47    1
    50    24    48    1
    51    24    49    1
    52    26    27   ar
    53    26    50    1
@<TRIPOS>SUBSTRUCTURE
     1 ZINC000288921983        1 TEMP              0 ****  ****    0 ROOT


##########                                Name:    ZINC000581017854
##########                DOCK_Rotatable_Bonds:                   6
##########                         Heavy_Atoms:                  24
##########                    Molecular_Weight:             330.334
##########                DOCK_Rotatable_Bonds:                   6
##########                       Formal_Charge:           0.0099998
##########                     HBond_Acceptors:                   6
##########                        HBond_Donors:                   2
##########                         Heavy_Atoms:                  24
##########                          Grid_Score:          -33.049835
##########                     Grid_vdw_energy:          -31.018511
##########                      Grid_es_energy:           -2.031325
##########           Internal_energy_repulsive:            9.094201

@<TRIPOS>MOLECULE
ZINC000581017854
 40 42 1 0 0
SMALL
USER_CHARGES


@<TRIPOS>ATOM
      1 C1        -14.5837   -5.8760   56.8854 C.3     1  ZINC000581017854   -0.1600
      2 C2        -13.1854   -5.4542   56.4293 C.3     1  ZINC000581017854    0.1500
      3 H3        -12.5532   -6.3369   56.3326 H       1  ZINC000581017854    0.1100
      4 C4        -13.2823   -4.7455   55.0769 C.3     1  ZINC000581017854    0.0500
      5 O5        -12.2330   -3.7815   54.9681 O.3     1  ZINC000581017854   -0.3100
      6 C6        -12.3631   -2.8342   54.0023 C.ar    1  ZINC000581017854    0.1600
      7 C7        -11.6188   -1.6655   54.0711 C.ar    1  ZINC000581017854   -0.2200
      8 C8        -11.7519   -0.7031   53.0886 C.ar    1  ZINC000581017854   -0.0500
      9 C9        -12.6263   -0.9029   52.0371 C.ar    1  ZINC000581017854   -0.1900
     10 C10       -13.3714   -2.0683   51.9655 C.ar    1  ZINC000581017854    0.1400
     11 F11       -14.2256   -2.2618   50.9368 F       1  ZINC000581017854   -0.1300
     12 C12       -13.2360   -3.0373   52.9436 C.ar    1  ZINC000581017854   -0.1900
     13 N13       -12.6036   -4.5428   57.4178 N.am    1  ZINC000581017854   -0.7300
     14 C14       -11.3633   -4.7683   57.8944 C.2     1  ZINC000581017854    0.5900
     15 O15       -10.7273   -5.7295   57.5048 O.2     1  ZINC000581017854   -0.5400
     16 C16       -10.7792   -3.8533   58.8843 C.2     1  ZINC000581017854   -0.2200
     17 C17        -9.4530   -3.6649   59.1387 C.2     1  ZINC000581017854    0.1100
     18 N18        -9.3009   -2.7415   60.1188 N.pl3   1  ZINC000581017854   -0.5700
     19 C19       -10.5310   -2.2865   60.5469 C.ar    1  ZINC000581017854    0.1100
     20 C20       -10.9210   -1.3600   61.5079 C.ar    1  ZINC000581017854   -0.1600
     21 C21       -12.2617   -1.1085   61.7173 C.ar    1  ZINC000581017854    0.1200
     22 F22       -12.6361   -0.2073   62.6516 F       1  ZINC000581017854   -0.1400
     23 C23       -13.2298   -1.7735   60.9753 C.ar    1  ZINC000581017854   -0.1700
     24 C24       -12.8611   -2.6945   60.0193 C.ar    1  ZINC000581017854   -0.0300
     25 C25       -11.5115   -2.9529   59.7943 C.ar    1  ZINC000581017854   -0.0700
     26 H26       -15.0166   -6.5541   56.1499 H       1  ZINC000581017854    0.0700
     27 H27       -14.5147   -6.3809   57.8489 H       1  ZINC000581017854    0.0700
     28 H28       -15.2159   -4.9934   56.9822 H       1  ZINC000581017854    0.0700
     29 H29       -13.1872   -5.4779   54.2752 H       1  ZINC000581017854    0.0700
     30 H30       -14.2465   -4.2434   54.9980 H       1  ZINC000581017854    0.0800
     31 H31       -10.9356   -1.5078   54.8926 H       1  ZINC000581017854    0.1400
     32 H32       -11.1722    0.2066   53.1426 H       1  ZINC000581017854    0.1400
     33 H33       -12.7290   -0.1491   51.2704 H       1  ZINC000581017854    0.1400
     34 H34       -13.8164   -3.9463   52.8882 H       1  ZINC000581017854    0.1400
     35 H35       -13.1111   -3.7771   57.7293 H       1  ZINC000581017854    0.4000
     36 H36        -8.6453   -4.1749   58.6349 H       1  ZINC000581017854    0.1800
     37 H37        -8.4474   -2.4429   60.4702 H       1  ZINC000581017854    0.4200
     38 H38       -10.1758   -0.8382   62.0899 H       1  ZINC000581017854    0.1400
     39 H39       -14.2757   -1.5681   61.1490 H       1  ZINC000581017854    0.1400
     40 H40       -13.6154   -3.2106   59.4439 H       1  ZINC000581017854    0.1500
@<TRIPOS>BOND
     1     1     2    1
     2     1    26    1
     3     1    27    1
     4     1    28    1
     5     2     3    1
     6     2     4    1
     7     2    13    1
     8     4     5    1
     9     4    29    1
    10     4    30    1
    11     5     6    1
    12     6    12   ar
    13     6     7   ar
    14     7     8   ar
    15     7    31    1
    16     8     9   ar
    17     8    32    1
    18     9    10   ar
    19     9    33    1
    20    10    11    1
    21    10    12   ar
    22    12    34    1
    23    13    14   am
    24    13    35    1
    25    14    15    2
    26    14    16    1
    27    16    25    1
    28    16    17    2
    29    17    18    1
    30    17    36    1
    31    18    19    1
    32    18    37    1
    33    19    25   ar
    34    19    20   ar
    35    20    21   ar
    36    20    38    1
    37    21    22    1
    38    21    23   ar
    39    23    24   ar
    40    23    39    1
    41    24    25   ar
    42    24    40    1
@<TRIPOS>SUBSTRUCTURE
     1 ZINC000581017854        1 TEMP              0 ****  ****    0 ROOT


##########                                Name:    ZINC000750807956
##########                DOCK_Rotatable_Bonds:                  11
##########                         Heavy_Atoms:                  26
##########                    Molecular_Weight:             368.473
##########                DOCK_Rotatable_Bonds:                  11
##########                       Formal_Charge:        -8.12113e-07
##########                     HBond_Acceptors:                   7
##########                        HBond_Donors:                   1
##########                         Heavy_Atoms:                  26
##########                          Grid_Score:          -33.048340
##########                     Grid_vdw_energy:          -32.356438
##########                      Grid_es_energy:           -0.691903
##########           Internal_energy_repulsive:           95.104904

@<TRIPOS>MOLECULE
ZINC000750807956
 58 59 1 0 0
SMALL
USER_CHARGES


@<TRIPOS>ATOM
      1 C1        -11.1713   -2.8652   52.2239 C.3     1  ZINC000750807956   -0.1500
      2 C2        -10.4687   -1.5094   52.1273 C.3     1  ZINC000750807956    0.0700
      3 O3        -10.2256   -0.9939   53.4627 O.3     1  ZINC000750807956   -0.3600
      4 C4        -11.0355   -0.0145   53.8947 C.2     1  ZINC000750807956    0.4800
      5 O5        -12.2332   -0.1270   53.7811 O.2     1  ZINC000750807956   -0.4900
      6 C6        -10.4512    1.2252   54.5212 C.3     1  ZINC000750807956    0.1600
      7 H7        -11.1910    2.0257   54.5061 H       1  ZINC000750807956    0.1000
      8 C8         -9.2086    1.6597   53.7377 C.3     1  ZINC000750807956   -0.1300
      9 C9         -8.5410    2.8336   54.4577 C.3     1  ZINC000750807956   -0.1200
     10 C10        -8.1011    2.3932   55.8558 C.3     1  ZINC000750807956   -0.1400
     11 C11        -9.3312    1.9670   56.6632 C.3     1  ZINC000750807956    0.1100
     12 N12       -10.0629    0.9396   55.9090 N.am    1  ZINC000750807956   -0.6100
     13 C13       -10.3670   -0.2437   56.4781 C.2     1  ZINC000750807956    0.5100
     14 O14       -10.9712   -1.0835   55.8451 O.2     1  ZINC000750807956   -0.5000
     15 C15        -9.9564   -0.5233   57.9008 C.3     1  ZINC000750807956   -0.1400
     16 C16       -10.5488   -1.8609   58.3491 C.3     1  ZINC000750807956    0.2100
     17 H17       -10.4835   -2.5792   57.5320 H       1  ZINC000750807956    0.1000
     18 N18       -11.9527   -1.6724   58.7226 N.am    1  ZINC000750807956   -0.7000
     19 C19       -12.9032   -2.4689   58.1947 C.2     1  ZINC000750807956    0.6600
     20 O20       -12.5955   -3.3443   57.4101 O.2     1  ZINC000750807956   -0.5600
     21 O21       -14.1937   -2.2947   58.5367 O.3     1  ZINC000750807956   -0.3700
     22 C22       -15.1761   -3.1034   57.8370 C.3     1  ZINC000750807956    0.1400
     23 C23       -16.5793   -2.7344   58.3225 C.3     1  ZINC000750807956   -0.1800
     24 C24       -15.0723   -2.8439   56.3328 C.3     1  ZINC000750807956   -0.1400
     25 C25       -14.9118   -4.5838   58.1187 C.3     1  ZINC000750807956   -0.1800
     26 C26        -9.7666   -2.3868   59.5543 C.3     1  ZINC000750807956   -0.1800
     27 C27       -10.5298   -3.2281   60.5794 C.3     1  ZINC000750807956   -0.1700
     28 C28        -9.5262   -3.8954   59.6368 C.3     1  ZINC000750807956   -0.1800
     29 H29       -12.1208   -2.7459   52.7458 H       1  ZINC000750807956    0.0600
     30 H30       -11.3537   -3.2521   51.2214 H       1  ZINC000750807956    0.0800
     31 H31       -10.5398   -3.5632   52.7735 H       1  ZINC000750807956    0.0700
     32 H32        -9.5191   -1.6287   51.6054 H       1  ZINC000750807956    0.0700
     33 H33       -11.1002   -0.8114   51.5777 H       1  ZINC000750807956    0.0600
     34 H34        -8.5088    0.8264   53.6742 H       1  ZINC000750807956    0.0800
     35 H35        -9.5007    1.9673   52.7336 H       1  ZINC000750807956    0.0800
     36 H36        -7.6704    3.1606   53.8892 H       1  ZINC000750807956    0.0800
     37 H37        -9.2495    3.6577   54.5427 H       1  ZINC000750807956    0.0700
     38 H38        -7.4117    1.5529   55.7724 H       1  ZINC000750807956    0.0700
     39 H39        -7.6049    3.2228   56.3593 H       1  ZINC000750807956    0.0800
     40 H40        -9.0148    1.5598   57.6235 H       1  ZINC000750807956    0.0900
     41 H41        -9.9786    2.8289   56.8250 H       1  ZINC000750807956    0.0800
     42 H42        -8.8691   -0.5684   57.9630 H       1  ZINC000750807956    0.1200
     43 H43       -10.3247    0.2725   58.5483 H       1  ZINC000750807956    0.1100
     44 H44       -12.1983   -0.9744   59.3499 H       1  ZINC000750807956    0.4000
     45 H45       -16.7676   -1.6798   58.1219 H       1  ZINC000750807956    0.0600
     46 H46       -17.3167   -3.3416   57.7974 H       1  ZINC000750807956    0.0700
     47 H47       -16.6533   -2.9194   59.3942 H       1  ZINC000750807956    0.0900
     48 H48       -14.0725   -3.1067   55.9869 H       1  ZINC000750807956    0.0700
     49 H49       -15.8096   -3.4509   55.8076 H       1  ZINC000750807956    0.0800
     50 H50       -15.2605   -1.7892   56.1322 H       1  ZINC000750807956    0.0700
     51 H51       -14.9857   -4.7687   59.1904 H       1  ZINC000750807956    0.0900
     52 H52       -15.6492   -5.1909   57.5935 H       1  ZINC000750807956    0.0700
     53 H53       -13.9121   -4.8466   57.7729 H       1  ZINC000750807956    0.0600
     54 H54        -8.9799   -1.7306   59.9268 H       1  ZINC000750807956    0.1100
     55 H55       -10.2454   -3.1255   61.6266 H       1  ZINC000750807956    0.0900
     56 H56       -11.5891   -3.4069   60.3950 H       1  ZINC000750807956    0.0900
     57 H57        -9.9254   -4.5134   58.8324 H       1  ZINC000750807956    0.1200
     58 H58        -8.5815   -4.2319   60.0639 H       1  ZINC000750807956    0.0900
@<TRIPOS>BOND
     1     1     2    1
     2     1    29    1
     3     1    30    1
     4     1    31    1
     5     2     3    1
     6     2    32    1
     7     2    33    1
     8     3     4    1
     9     4     5    2
    10     4     6    1
    11     6     7    1
    12     6    12    1
    13     6     8    1
    14     8     9    1
    15     8    34    1
    16     8    35    1
    17     9    10    1
    18     9    36    1
    19     9    37    1
    20    10    11    1
    21    10    38    1
    22    10    39    1
    23    11    12    1
    24    11    40    1
    25    11    41    1
    26    12    13   am
    27    13    14    2
    28    13    15    1
    29    15    16    1
    30    15    42    1
    31    15    43    1
    32    16    17    1
    33    16    18    1
    34    16    26    1
    35    18    19   am
    36    18    44    1
    37    19    20    2
    38    19    21    1
    39    21    22    1
    40    22    23    1
    41    22    24    1
    42    22    25    1
    43    23    45    1
    44    23    46    1
    45    23    47    1
    46    24    48    1
    47    24    49    1
    48    24    50    1
    49    25    51    1
    50    25    52    1
    51    25    53    1
    52    26    28    1
    53    26    27    1
    54    26    54    1
    55    27    28    1
    56    27    55    1
    57    27    56    1
    58    28    57    1
    59    28    58    1
@<TRIPOS>SUBSTRUCTURE
     1 ZINC000750807956        1 TEMP              0 ****  ****    0 ROOT


##########                                Name:    ZINC000945148121
##########                DOCK_Rotatable_Bonds:                   6
##########                         Heavy_Atoms:                  24
##########                    Molecular_Weight:             332.446
##########                DOCK_Rotatable_Bonds:                   6
##########                       Formal_Charge:           0.0100009
##########                     HBond_Acceptors:                   6
##########                        HBond_Donors:                   2
##########                         Heavy_Atoms:                  24
##########                          Grid_Score:          -33.040695
##########                     Grid_vdw_energy:          -33.950657
##########                      Grid_es_energy:            0.909961
##########           Internal_energy_repulsive:           18.495642

@<TRIPOS>MOLECULE
ZINC000945148121
 52 54 1 0 0
SMALL
USER_CHARGES


@<TRIPOS>ATOM
      1 O1        -10.4326    1.1113   61.2819 O.2     1  ZINC000945148121   -0.5100
      2 C2        -10.8305    0.3909   62.1727 C.2     1  ZINC000945148121    0.5200
      3 C3        -11.1913    0.9786   63.5127 C.3     1  ZINC000945148121   -0.0500
      4 C4         -9.9714    0.9986   64.3973 C.2     1  ZINC000945148121    0.0100
      5 C5         -8.9299    0.1476   64.3286 C.2     1  ZINC000945148121   -0.0500
      6 N6         -8.0484    0.5207   65.3070 N.pl3   1  ZINC000945148121   -0.5700
      7 C7         -8.5821    1.5875   65.9400 C.2     1  ZINC000945148121    0.1800
      8 N8         -9.7299    1.8708   65.3872 N.2     1  ZINC000945148121   -0.4700
      9 N9        -10.9555   -0.9346   61.9626 N.am    1  ZINC000945148121   -0.7300
     10 C10       -10.6048   -1.5059   60.6600 C.3     1  ZINC000945148121    0.1500
     11 C11       -10.2960   -2.9959   60.8233 C.3     1  ZINC000945148121   -0.1400
     12 C12        -9.8963   -3.5822   59.4656 C.3     1  ZINC000945148121    0.1100
     13 N13       -10.9577   -3.2890   58.4929 N.am    1  ZINC000945148121   -0.6100
     14 C14       -11.5197   -4.2784   57.7706 C.2     1  ZINC000945148121    0.5200
     15 O15       -11.1511   -5.4239   57.9215 O.2     1  ZINC000945148121   -0.5400
     16 C16       -12.6061   -3.9613   56.7756 C.3     1  ZINC000945148121   -0.1000
     17 C17       -11.9988   -3.3521   55.5410 C.3     1  ZINC000945148121   -0.1200
     18 C18       -12.9154   -2.2976   54.8919 C.3     1  ZINC000945148121   -0.1200
     19 C19       -14.3951   -2.7259   54.8675 C.3     1  ZINC000945148121   -0.1200
     20 C20       -14.5691   -4.1747   54.5000 C.3     1  ZINC000945148121   -0.1200
     21 C21       -14.6477   -5.0034   55.7984 C.3     1  ZINC000945148121   -0.1200
     22 C22       -13.3354   -5.2596   56.3733 C.3     1  ZINC000945148121   -0.1000
     23 C23       -11.3952   -1.8967   58.3228 C.3     1  ZINC000945148121    0.1100
     24 C24       -11.7781   -1.3294   59.6934 C.3     1  ZINC000945148121   -0.1400
     25 H25       -11.5579    1.9961   63.3764 H       1  ZINC000945148121    0.1000
     26 H26       -11.9679    0.3719   63.9784 H       1  ZINC000945148121    0.1000
     27 H27        -8.8130   -0.6720   63.6350 H       1  ZINC000945148121    0.1800
     28 H28        -7.1989    0.0978   65.5080 H       1  ZINC000945148121    0.4200
     29 H29        -8.1318    2.1206   66.7643 H       1  ZINC000945148121    0.2100
     30 H30       -11.2774   -1.5101   62.6740 H       1  ZINC000945148121    0.4000
     31 H31        -9.7275   -0.9948   60.2635 H       1  ZINC000945148121    0.0900
     32 H32        -9.4756   -3.1221   61.5298 H       1  ZINC000945148121    0.0800
     33 H33       -11.1806   -3.5121   61.1961 H       1  ZINC000945148121    0.0700
     34 H34        -8.9614   -3.1306   59.1335 H       1  ZINC000945148121    0.0700
     35 H35        -9.7714   -4.6612   59.5559 H       1  ZINC000945148121    0.1000
     36 H36       -13.3171   -3.2644   57.2194 H       1  ZINC000945148121    0.1000
     37 H37       -11.0533   -2.8805   55.8091 H       1  ZINC000945148121    0.0700
     38 H38       -11.8033   -4.1430   54.8170 H       1  ZINC000945148121    0.0700
     39 H39       -12.8286   -1.3651   55.4497 H       1  ZINC000945148121    0.0600
     40 H40       -12.5826   -2.1247   53.8685 H       1  ZINC000945148121    0.0700
     41 H41       -14.8272   -2.5580   55.8540 H       1  ZINC000945148121    0.0600
     42 H42       -14.9282   -2.1116   54.1419 H       1  ZINC000945148121    0.0600
     43 H43       -15.4895   -4.2997   53.9295 H       1  ZINC000945148121    0.0600
     44 H44       -13.7182   -4.5062   53.9048 H       1  ZINC000945148121    0.0700
     45 H45       -15.2524   -4.4626   56.5263 H       1  ZINC000945148121    0.0600
     46 H46       -15.1296   -5.9564   55.5803 H       1  ZINC000945148121    0.0600
     47 H47       -12.7280   -5.7937   55.6426 H       1  ZINC000945148121    0.0700
     48 H48       -13.4534   -5.8865   57.2573 H       1  ZINC000945148121    0.0700
     49 H49       -10.5826   -1.3077   57.8976 H       1  ZINC000945148121    0.0700
     50 H50       -12.2593   -1.8637   57.6593 H       1  ZINC000945148121    0.1000
     51 H51       -12.6487   -1.8612   60.0769 H       1  ZINC000945148121    0.0700
     52 H52       -12.0126   -0.2693   59.5957 H       1  ZINC000945148121    0.0800
@<TRIPOS>BOND
     1     1     2    2
     2     2     3    1
     3     2     9   am
     4     3     4    1
     5     3    25    1
     6     3    26    1
     7     4     8    1
     8     4     5    2
     9     5     6    1
    10     5    27    1
    11     6     7    1
    12     6    28    1
    13     7     8    2
    14     7    29    1
    15     9    10    1
    16     9    30    1
    17    10    24    1
    18    10    11    1
    19    10    31    1
    20    11    12    1
    21    11    32    1
    22    11    33    1
    23    12    13    1
    24    12    34    1
    25    12    35    1
    26    13    14   am
    27    13    23    1
    28    14    15    2
    29    14    16    1
    30    16    22    1
    31    16    17    1
    32    16    36    1
    33    17    18    1
    34    17    37    1
    35    17    38    1
    36    18    19    1
    37    18    39    1
    38    18    40    1
    39    19    20    1
    40    19    41    1
    41    19    42    1
    42    20    21    1
    43    20    43    1
    44    20    44    1
    45    21    22    1
    46    21    45    1
    47    21    46    1
    48    22    47    1
    49    22    48    1
    50    23    24    1
    51    23    49    1
    52    23    50    1
    53    24    51    1
    54    24    52    1
@<TRIPOS>SUBSTRUCTURE
     1 ZINC000945148121        1 TEMP              0 ****  ****    0 ROOT


##########                                Name:    ZINC000171059239
##########                DOCK_Rotatable_Bonds:                   8
##########                         Heavy_Atoms:                  25
##########                    Molecular_Weight:              333.39
##########                DOCK_Rotatable_Bonds:                   8
##########                       Formal_Charge:         1.10269e-06
##########                     HBond_Acceptors:                   5
##########                        HBond_Donors:                   4
##########                         Heavy_Atoms:                  25
##########                          Grid_Score:          -33.000187
##########                     Grid_vdw_energy:          -32.478313
##########                      Grid_es_energy:           -0.521873
##########           Internal_energy_repulsive:            8.431865

@<TRIPOS>MOLECULE
ZINC000171059239
 44 46 1 0 0
SMALL
USER_CHARGES


@<TRIPOS>ATOM
      1 N1         -4.9046    2.4385   50.9566 N.am    1  ZINC000171059239   -0.8500
      2 C2         -5.9750    2.3555   51.7712 C.2     1  ZINC000171059239    0.5600
      3 O3         -6.2269    3.2641   52.5383 O.2     1  ZINC000171059239   -0.5400
      4 C4         -6.8429    1.1591   51.7319 C.ar    1  ZINC000171059239   -0.1400
      5 C5         -6.5711    0.1254   50.8346 C.ar    1  ZINC000171059239   -0.0900
      6 C6         -7.3847   -0.9886   50.8033 C.ar    1  ZINC000171059239   -0.1200
      7 C7         -8.4681   -1.0817   51.6585 C.ar    1  ZINC000171059239   -0.0800
      8 C8         -8.7435   -0.0600   52.5503 C.ar    1  ZINC000171059239   -0.0900
      9 C9         -9.9260   -0.1700   53.4778 C.3     1  ZINC000171059239   -0.0900
     10 C10        -9.5502    0.3882   54.8519 C.3     1  ZINC000171059239    0.1400
     11 N11       -10.4742   -0.1353   55.8610 N.am    1  ZINC000171059239   -0.7400
     12 C12       -10.0258   -0.4287   57.0976 C.2     1  ZINC000171059239    0.7000
     13 O13        -8.8547   -0.2575   57.3762 O.2     1  ZINC000171059239   -0.5700
     14 N14       -10.8755   -0.9118   58.0256 N.am    1  ZINC000171059239   -0.6800
     15 C15       -10.4110   -1.2157   59.3068 C.ar    1  ZINC000171059239    0.1700
     16 C16       -10.5281   -0.2717   60.3489 C.ar    1  ZINC000171059239   -0.0600
     17 C17       -11.1092    0.9870   60.1295 C.ar    1  ZINC000171059239   -0.1100
     18 C18       -11.2061    1.8733   61.1586 C.ar    1  ZINC000171059239   -0.1100
     19 C19       -10.7360    1.5498   62.4299 C.ar    1  ZINC000171059239   -0.1200
     20 C20       -10.1669    0.3388   62.6792 C.ar    1  ZINC000171059239   -0.1000
     21 C21       -10.0502   -0.6019   61.6412 C.ar    1  ZINC000171059239   -0.0400
     22 C22        -9.4688   -1.8618   61.8624 C.ar    1  ZINC000171059239   -0.1200
     23 C23        -9.3690   -2.7537   60.8385 C.ar    1  ZINC000171059239   -0.0900
     24 C24        -9.8391   -2.4426   59.5662 C.ar    1  ZINC000171059239   -0.1200
     25 C25        -7.9343    1.0562   52.5961 C.ar    1  ZINC000171059239   -0.0500
     26 H26        -4.3346    3.2229   50.9832 H       1  ZINC000171059239    0.4100
     27 H27        -4.7020    1.7122   50.3464 H       1  ZINC000171059239    0.4000
     28 H28        -5.7261    0.1974   50.1660 H       1  ZINC000171059239    0.1300
     29 H29        -7.1756   -1.7893   50.1094 H       1  ZINC000171059239    0.1300
     30 H30        -9.1021   -1.9556   51.6298 H       1  ZINC000171059239    0.1300
     31 H31       -10.7616    0.3994   53.0704 H       1  ZINC000171059239    0.0800
     32 H32       -10.2138   -1.2166   53.5771 H       1  ZINC000171059239    0.0800
     33 H33        -8.5324    0.0873   55.1003 H       1  ZINC000171059239    0.0700
     34 H34        -9.6127    1.4762   54.8315 H       1  ZINC000171059239    0.0700
     35 H35       -11.4088   -0.2707   55.6392 H       1  ZINC000171059239    0.4000
     36 H36       -11.8098   -1.0483   57.8034 H       1  ZINC000171059239    0.4100
     37 H37       -11.4772    1.2514   59.1492 H       1  ZINC000171059239    0.1200
     38 H38       -11.6537    2.8411   60.9870 H       1  ZINC000171059239    0.1200
     39 H39       -10.8241    2.2708   63.2290 H       1  ZINC000171059239    0.1200
     40 H40        -9.8065    0.1020   63.6694 H       1  ZINC000171059239    0.1300
     41 H41        -9.1010   -2.1224   62.8438 H       1  ZINC000171059239    0.1300
     42 H42        -8.9207   -3.7199   61.0175 H       1  ZINC000171059239    0.1300
     43 H43        -9.7483   -3.1679   58.7712 H       1  ZINC000171059239    0.1400
     44 H44        -8.1501    1.8527   53.2927 H       1  ZINC000171059239    0.1400
@<TRIPOS>BOND
     1     1     2   am
     2     1    26    1
     3     1    27    1
     4     2     3    2
     5     2     4    1
     6     4    25   ar
     7     4     5   ar
     8     5     6   ar
     9     5    28    1
    10     6     7   ar
    11     6    29    1
    12     7     8   ar
    13     7    30    1
    14     8     9    1
    15     8    25   ar
    16     9    10    1
    17     9    31    1
    18     9    32    1
    19    10    11    1
    20    10    33    1
    21    10    34    1
    22    11    12   am
    23    11    35    1
    24    12    13    2
    25    12    14   am
    26    14    15    1
    27    14    36    1
    28    15    24   ar
    29    15    16   ar
    30    16    21   ar
    31    16    17   ar
    32    17    18   ar
    33    17    37    1
    34    18    19   ar
    35    18    38    1
    36    19    20   ar
    37    19    39    1
    38    20    21   ar
    39    20    40    1
    40    21    22   ar
    41    22    23   ar
    42    22    41    1
    43    23    24   ar
    44    23    42    1
    45    24    43    1
    46    25    44    1
@<TRIPOS>SUBSTRUCTURE
     1 ZINC000171059239        1 TEMP              0 ****  ****    0 ROOT


##########                                Name:    ZINC001341052241
##########                DOCK_Rotatable_Bonds:                   7
##########                         Heavy_Atoms:                  24
##########                    Molecular_Weight:             336.478
##########                DOCK_Rotatable_Bonds:                   7
##########                       Formal_Charge:         5.96046e-08
##########                     HBond_Acceptors:                   6
##########                        HBond_Donors:                   0
##########                         Heavy_Atoms:                  24
##########                          Grid_Score:          -32.985077
##########                     Grid_vdw_energy:          -32.193035
##########                      Grid_es_energy:           -0.792041
##########           Internal_energy_repulsive:           12.831749

@<TRIPOS>MOLECULE
ZINC001341052241
 56 58 1 0 0
SMALL
USER_CHARGES


@<TRIPOS>ATOM
      1 C1        -15.1703   -3.9426   59.4646 C.3     1  ZINC001341052241   -0.1700
      2 C2        -14.4600   -3.1304   58.3798 C.3     1  ZINC001341052241    0.1100
      3 N3        -13.0764   -3.5939   58.2500 N.pl3   1  ZINC001341052241   -0.4500
      4 C4        -12.6182   -4.6150   57.4643 C.2     1  ZINC001341052241    0.1800
      5 C5        -13.4486   -5.4857   56.5569 C.3     1  ZINC001341052241    0.1500
      6 O6        -13.8476   -4.7336   55.4093 O.3     1  ZINC001341052241   -0.3700
      7 C7        -12.7690   -4.0746   54.7424 C.3     1  ZINC001341052241    0.0900
      8 C8        -12.9213   -2.5604   54.8995 C.3     1  ZINC001341052241   -0.1400
      9 C9        -11.7664   -1.8550   54.1856 C.3     1  ZINC001341052241   -0.1200
     10 C10       -11.7876   -2.2182   52.6995 C.3     1  ZINC001341052241   -0.1200
     11 C11       -11.6353   -3.7325   52.5424 C.3     1  ZINC001341052241   -0.1200
     12 C12       -12.7902   -4.4379   53.2563 C.3     1  ZINC001341052241   -0.1200
     13 N13       -11.3303   -4.6950   57.6449 N.2     1  ZINC001341052241   -0.2600
     14 N14       -10.9458   -3.7972   58.4805 N.2     1  ZINC001341052241   -0.3100
     15 C15       -11.9777   -3.0967   58.8883 C.2     1  ZINC001341052241    0.3500
     16 N16       -11.9551   -2.0465   59.7921 N.3     1  ZINC001341052241   -0.4600
     17 C17       -10.9102   -2.2459   60.8045 C.3     1  ZINC001341052241    0.0700
     18 C18       -11.0092   -1.1468   61.8649 C.3     1  ZINC001341052241   -0.1100
     19 C19       -10.8419    0.2193   61.1941 C.3     1  ZINC001341052241   -0.0900
     20 C20       -11.0005    1.3251   62.2396 C.3     1  ZINC001341052241    0.0700
     21 O21       -12.0784    0.9980   63.1191 O.3     1  ZINC001341052241   -0.3900
     22 C22       -12.2835    1.9490   64.1658 C.3     1  ZINC001341052241    0.0300
     23 C23       -11.9120    0.3818   60.1110 C.3     1  ZINC001341052241   -0.1100
     24 C24       -11.7868   -0.7615   59.1015 C.3     1  ZINC001341052241    0.0700
     25 H25       -15.1557   -4.9987   59.1958 H       1  ZINC001341052241    0.0600
     26 H26       -14.6585   -3.8029   60.4168 H       1  ZINC001341052241    0.0700
     27 H27       -16.2028   -3.6046   59.5541 H       1  ZINC001341052241    0.0800
     28 H28       -14.4656   -2.0753   58.6537 H       1  ZINC001341052241    0.0900
     29 H29       -14.9779   -3.2618   57.4298 H       1  ZINC001341052241    0.1000
     30 H30       -12.8595   -6.3464   56.2403 H       1  ZINC001341052241    0.0900
     31 H31       -14.3338   -5.8284   57.0926 H       1  ZINC001341052241    0.0700
     32 H32       -11.8227   -4.3922   55.1806 H       1  ZINC001341052241    0.0600
     33 H33       -13.8674   -2.2429   54.4613 H       1  ZINC001341052241    0.0700
     34 H34       -12.9061   -2.3016   55.9582 H       1  ZINC001341052241    0.0700
     35 H35       -10.8202   -2.1724   54.6238 H       1  ZINC001341052241    0.0600
     36 H36       -11.8749   -0.7761   54.2975 H       1  ZINC001341052241    0.0700
     37 H37       -10.9649   -1.7156   52.1909 H       1  ZINC001341052241    0.0600
     38 H38       -12.7338   -1.9009   52.2613 H       1  ZINC001341052241    0.0600
     39 H39       -10.6891   -4.0499   52.9806 H       1  ZINC001341052241    0.0600
     40 H40       -11.6504   -3.9912   51.4837 H       1  ZINC001341052241    0.0700
     41 H41       -12.6817   -5.5168   53.1444 H       1  ZINC001341052241    0.0700
     42 H42       -13.7364   -4.1205   52.8181 H       1  ZINC001341052241    0.0700
     43 H43        -9.9305   -2.2042   60.3286 H       1  ZINC001341052241    0.0600
     44 H44       -11.0433   -3.2192   61.2768 H       1  ZINC001341052241    0.0800
     45 H45       -10.2239   -1.2862   62.6077 H       1  ZINC001341052241    0.0800
     46 H46       -11.9837   -1.1967   62.3509 H       1  ZINC001341052241    0.0800
     47 H47        -9.8521    0.2845   60.7423 H       1  ZINC001341052241    0.0800
     48 H48       -11.2137    2.2700   61.7396 H       1  ZINC001341052241    0.0500
     49 H49       -10.0786    1.4176   62.8135 H       1  ZINC001341052241    0.0500
     50 H50       -11.3819    2.0197   64.7742 H       1  ZINC001341052241    0.0400
     51 H51       -13.1184    1.6287   64.7891 H       1  ZINC001341052241    0.0900
     52 H52       -12.5067    2.9239   63.7323 H       1  ZINC001341052241    0.0400
     53 H53       -12.9006    0.3561   60.5695 H       1  ZINC001341052241    0.0700
     54 H54       -11.7716    1.3348   59.6009 H       1  ZINC001341052241    0.0800
     55 H55       -10.8031   -0.7267   58.6335 H       1  ZINC001341052241    0.0600
     56 H56       -12.5565   -0.6566   58.3368 H       1  ZINC001341052241    0.0800
@<TRIPOS>BOND
     1     1     2    1
     2     1    25    1
     3     1    26    1
     4     1    27    1
     5     2     3    1
     6     2    28    1
     7     2    29    1
     8     3    15    1
     9     3     4    1
    10     4     5    1
    11     4    13    2
    12     5     6    1
    13     5    30    1
    14     5    31    1
    15     6     7    1
    16     7    12    1
    17     7     8    1
    18     7    32    1
    19     8     9    1
    20     8    33    1
    21     8    34    1
    22     9    10    1
    23     9    35    1
    24     9    36    1
    25    10    11    1
    26    10    37    1
    27    10    38    1
    28    11    12    1
    29    11    39    1
    30    11    40    1
    31    12    41    1
    32    12    42    1
    33    13    14    1
    34    14    15    2
    35    15    16    1
    36    16    24    1
    37    16    17    1
    38    17    18    1
    39    17    43    1
    40    17    44    1
    41    18    19    1
    42    18    45    1
    43    18    46    1
    44    19    20    1
    45    19    23    1
    46    19    47    1
    47    20    21    1
    48    20    48    1
    49    20    49    1
    50    21    22    1
    51    22    50    1
    52    22    51    1
    53    22    52    1
    54    23    24    1
    55    23    53    1
    56    23    54    1
    57    24    55    1
    58    24    56    1
@<TRIPOS>SUBSTRUCTURE
     1 ZINC001341052241        1 TEMP              0 ****  ****    0 ROOT


##########                                Name:    ZINC000501032137
##########                DOCK_Rotatable_Bonds:                  10
##########                         Heavy_Atoms:                  25
##########                    Molecular_Weight:             407.307
##########                DOCK_Rotatable_Bonds:                  10
##########                       Formal_Charge:           0.0099998
##########                     HBond_Acceptors:                   5
##########                        HBond_Donors:                   1
##########                         Heavy_Atoms:                  25
##########                          Grid_Score:          -32.942547
##########                     Grid_vdw_energy:          -31.656376
##########                      Grid_es_energy:           -1.286170
##########           Internal_energy_repulsive:           11.791012

@<TRIPOS>MOLECULE
ZINC000501032137
 48 50 1 0 0
SMALL
USER_CHARGES


@<TRIPOS>ATOM
      1 C1        -13.7343   -4.9883   54.8323 C.3     1  ZINC000501032137   -0.1500
      2 C2        -12.5859   -4.1917   55.4548 C.3     1  ZINC000501032137   -0.1200
      3 C3        -12.2570   -4.7647   56.8348 C.3     1  ZINC000501032137    0.0600
      4 O4        -11.0719   -4.1447   57.3379 O.3     1  ZINC000501032137   -0.3800
      5 C5        -11.1421   -2.7187   57.3968 C.3     1  ZINC000501032137    0.0500
      6 C6        -10.4026   -2.2226   58.6411 C.3     1  ZINC000501032137    0.1600
      7 H7         -9.3393   -2.4414   58.5431 H       1  ZINC000501032137    0.1000
      8 C8        -10.9568   -2.9297   59.8795 C.3     1  ZINC000501032137   -0.0900
      9 C9        -10.8393   -2.0177   61.0734 C.ar    1  ZINC000501032137   -0.0600
     10 C10        -9.6118   -1.8281   61.6798 C.ar    1  ZINC000501032137   -0.0900
     11 C11        -9.5033   -0.9914   62.7753 C.ar    1  ZINC000501032137   -0.1100
     12 C12       -10.6222   -0.3445   63.2643 C.ar    1  ZINC000501032137   -0.0900
     13 C13       -11.8510   -0.5340   62.6577 C.ar    1  ZINC000501032137   -0.0800
     14 Br14      -13.3826    0.3510   63.3265 Br      1  ZINC000501032137   -0.0600
     15 C15       -11.9581   -1.3665   61.5584 C.ar    1  ZINC000501032137   -0.0800
     16 N16       -10.5930   -0.7766   58.7783 N.am    1  ZINC000501032137   -0.7100
     17 C17        -9.8305    0.0744   58.0634 C.2     1  ZINC000501032137    0.6100
     18 O18        -8.9855   -0.3583   57.3034 O.2     1  ZINC000501032137   -0.5200
     19 C19       -10.0209    1.5295   58.2028 C.2     1  ZINC000501032137   -0.0800
     20 C20        -9.2724    2.5028   57.6157 C.2     1  ZINC000501032137    0.0800
     21 C21        -8.0925    2.2978   56.7009 C.3     1  ZINC000501032137   -0.0800
     22 C22        -7.1705    3.4944   56.4583 C.3     1  ZINC000501032137   -0.1700
     23 C23        -6.6978    2.3286   57.3292 C.3     1  ZINC000501032137   -0.1500
     24 O24        -9.7855    3.6803   58.0063 O.3     1  ZINC000501032137   -0.2000
     25 C25       -10.8262    3.4366   58.8154 C.2     1  ZINC000501032137    0.1800
     26 N26       -10.9817    2.1523   58.9378 N.2     1  ZINC000501032137   -0.4600
     27 H27       -13.4390   -6.0327   54.7310 H       1  ZINC000501032137    0.0600
     28 H28       -14.6133   -4.9196   55.4730 H       1  ZINC000501032137    0.0600
     29 H29       -13.9686   -4.5801   53.8491 H       1  ZINC000501032137    0.0600
     30 H30       -11.7068   -4.2603   54.8140 H       1  ZINC000501032137    0.0700
     31 H31       -12.8811   -3.1473   55.5560 H       1  ZINC000501032137    0.0700
     32 H32       -13.0857   -4.5705   57.5157 H       1  ZINC000501032137    0.0500
     33 H33       -12.0980   -5.8399   56.7533 H       1  ZINC000501032137    0.0500
     34 H34       -10.6789   -2.2949   56.5058 H       1  ZINC000501032137    0.0700
     35 H35       -12.1858   -2.4080   57.4465 H       1  ZINC000501032137    0.0600
     36 H36       -12.0048   -3.1809   59.7160 H       1  ZINC000501032137    0.0900
     37 H37       -10.3888   -3.8419   60.0618 H       1  ZINC000501032137    0.0800
     38 H38        -8.7371   -2.3338   61.2981 H       1  ZINC000501032137    0.1200
     39 H39        -8.5440   -0.8438   63.2490 H       1  ZINC000501032137    0.1300
     40 H40       -10.5374    0.3088   64.1202 H       1  ZINC000501032137    0.1300
     41 H41       -12.9171   -1.5145   61.0843 H       1  ZINC000501032137    0.1200
     42 H42       -11.2679   -0.4315   59.3835 H       1  ZINC000501032137    0.4100
     43 H43        -8.2553    1.6108   55.8704 H       1  ZINC000501032137    0.1500
     44 H44        -6.7266    3.5949   55.4678 H       1  ZINC000501032137    0.1100
     45 H45        -7.4172    4.4298   56.9602 H       1  ZINC000501032137    0.1000
     46 H46        -6.6336    2.4971   58.4042 H       1  ZINC000501032137    0.1000
     47 H47        -5.9429    1.6622   56.9118 H       1  ZINC000501032137    0.1100
     48 H48       -11.4405    4.1887   59.2879 H       1  ZINC000501032137    0.2500
@<TRIPOS>BOND
     1     1     2    1
     2     1    27    1
     3     1    28    1
     4     1    29    1
     5     2     3    1
     6     2    30    1
     7     2    31    1
     8     3     4    1
     9     3    32    1
    10     3    33    1
    11     4     5    1
    12     5     6    1
    13     5    34    1
    14     5    35    1
    15     6     7    1
    16     6     8    1
    17     6    16    1
    18     8     9    1
    19     8    36    1
    20     8    37    1
    21     9    15   ar
    22     9    10   ar
    23    10    11   ar
    24    10    38    1
    25    11    12   ar
    26    11    39    1
    27    12    13   ar
    28    12    40    1
    29    13    14    1
    30    13    15   ar
    31    15    41    1
    32    16    17   am
    33    16    42    1
    34    17    18    2
    35    17    19    1
    36    19    26    1
    37    19    20    2
    38    20    21    1
    39    20    24    1
    40    21    23    1
    41    21    22    1
    42    21    43    1
    43    22    23    1
    44    22    44    1
    45    22    45    1
    46    23    46    1
    47    23    47    1
    48    24    25    1
    49    25    26    2
    50    25    48    1
@<TRIPOS>SUBSTRUCTURE
     1 ZINC000501032137        1 TEMP              0 ****  ****    0 ROOT


##########                                Name:    ZINC000794876634
##########                DOCK_Rotatable_Bonds:                   4
##########                         Heavy_Atoms:                  24
##########                    Molecular_Weight:             389.249
##########                DOCK_Rotatable_Bonds:                   4
##########                       Formal_Charge:        -4.47035e-08
##########                     HBond_Acceptors:                   5
##########                        HBond_Donors:                   0
##########                         Heavy_Atoms:                  24
##########                          Grid_Score:          -32.931042
##########                     Grid_vdw_energy:          -32.672867
##########                      Grid_es_energy:           -0.258176
##########           Internal_energy_repulsive:           54.724396

@<TRIPOS>MOLECULE
ZINC000794876634
 41 43 1 0 0
SMALL
USER_CHARGES


@<TRIPOS>ATOM
      1 C1         -9.8808    0.7173   64.0372 C.3     1  ZINC000794876634    0.0200
      2 O2         -9.3624   -0.5261   63.5605 O.3     1  ZINC000794876634   -0.3000
      3 C3         -9.6985   -0.8900   62.2961 C.ar    1  ZINC000794876634    0.1300
      4 C4         -9.2217   -2.0835   61.7697 C.ar    1  ZINC000794876634   -0.1800
      5 C5         -9.5582   -2.4583   60.4880 C.ar    1  ZINC000794876634   -0.0400
      6 C6         -9.0387   -3.7541   59.9206 C.3     1  ZINC000794876634   -0.1200
      7 C7        -10.3842   -1.6344   59.7119 C.ar    1  ZINC000794876634   -0.1000
      8 C8        -10.7447   -2.0305   58.3476 C.2     1  ZINC000794876634    0.0600
      9 C9        -11.9583   -2.6048   58.1019 C.2     1  ZINC000794876634   -0.1700
     10 C10       -13.0243   -2.9019   59.0740 C.2     1  ZINC000794876634    0.5700
     11 O11       -12.9863   -2.6760   60.2697 O.2     1  ZINC000794876634   -0.4900
     12 N12       -14.0462   -3.4657   58.4084 N.am    1  ZINC000794876634   -0.5300
     13 C13       -15.2963   -3.9029   59.0351 C.3     1  ZINC000794876634    0.0800
     14 C14       -13.7710   -3.5816   57.0547 C.ar    1  ZINC000794876634    0.3700
     15 N15       -14.4883   -4.0710   56.0510 N.ar    1  ZINC000794876634   -0.4900
     16 C16       -14.0345   -4.0884   54.8141 C.ar    1  ZINC000794876634    0.1800
     17 C17       -12.7816   -3.5951   54.4961 C.ar    1  ZINC000794876634   -0.1800
     18 Br18      -12.1612   -3.6347   52.7102 Br      1  ZINC000794876634   -0.0200
     19 C19       -11.9865   -3.0707   55.5049 C.ar    1  ZINC000794876634    0.0000
     20 C20       -12.4939   -3.0596   56.7999 C.ar    1  ZINC000794876634   -0.1400
     21 C21       -10.8649   -0.4302   60.2452 C.ar    1  ZINC000794876634   -0.1400
     22 C22       -10.5262   -0.0663   61.5323 C.ar    1  ZINC000794876634    0.0900
     23 O23       -10.9910    1.1009   62.0530 O.3     1  ZINC000794876634   -0.3000
     24 C24       -11.8398    1.8913   61.2183 C.3     1  ZINC000794876634    0.0200
     25 H25        -9.5371    0.8870   65.0575 H       1  ZINC000794876634    0.1000
     26 H26        -9.5303    1.5265   63.3964 H       1  ZINC000794876634    0.0600
     27 H27       -10.9703    0.6869   64.0210 H       1  ZINC000794876634    0.0600
     28 H28        -8.5849   -2.7191   62.3671 H       1  ZINC000794876634    0.1400
     29 H29        -9.7416   -4.5566   60.1445 H       1  ZINC000794876634    0.0800
     30 H30        -8.9276   -3.6592   58.8404 H       1  ZINC000794876634    0.0700
     31 H31        -8.0709   -3.9840   60.3665 H       1  ZINC000794876634    0.0700
     32 H32       -10.0501   -1.8679   57.5368 H       1  ZINC000794876634    0.1500
     33 H33       -15.2570   -3.6987   60.1051 H       1  ZINC000794876634    0.0900
     34 H34       -16.1330   -3.3624   58.5925 H       1  ZINC000794876634    0.0800
     35 H35       -15.4287   -4.9727   58.8739 H       1  ZINC000794876634    0.0800
     36 H36       -14.6548   -4.4973   54.0302 H       1  ZINC000794876634    0.1800
     37 H37       -11.0036   -2.6782   55.2901 H       1  ZINC000794876634    0.1600
     38 H38       -11.5019    0.2088   59.6516 H       1  ZINC000794876634    0.1400
     39 H39       -11.2764    2.2385   60.3523 H       1  ZINC000794876634    0.0500
     40 H40       -12.6844    1.2886   60.8846 H       1  ZINC000794876634    0.0600
     41 H41       -12.2061    2.7496   61.7816 H       1  ZINC000794876634    0.1100
@<TRIPOS>BOND
     1     1     2    1
     2     1    25    1
     3     1    26    1
     4     1    27    1
     5     2     3    1
     6     3    22   ar
     7     3     4   ar
     8     4     5   ar
     9     4    28    1
    10     5     6    1
    11     5     7   ar
    12     6    29    1
    13     6    30    1
    14     6    31    1
    15     7     8    1
    16     7    21   ar
    17     8     9    2
    18     8    32    1
    19     9    20    1
    20     9    10    1
    21    10    11    2
    22    10    12   am
    23    12    13    1
    24    12    14    1
    25    13    33    1
    26    13    34    1
    27    13    35    1
    28    14    20   ar
    29    14    15   ar
    30    15    16   ar
    31    16    17   ar
    32    16    36    1
    33    17    18    1
    34    17    19   ar
    35    19    20   ar
    36    19    37    1
    37    21    22   ar
    38    21    38    1
    39    22    23    1
    40    23    24    1
    41    24    39    1
    42    24    40    1
    43    24    41    1
@<TRIPOS>SUBSTRUCTURE
     1 ZINC000794876634        1 TEMP              0 ****  ****    0 ROOT


##########                                Name:    ZINC000433533595
##########                DOCK_Rotatable_Bonds:                  10
##########                         Heavy_Atoms:                  24
##########                    Molecular_Weight:             397.312
##########                DOCK_Rotatable_Bonds:                  10
##########                       Formal_Charge:          0.00999916
##########                     HBond_Acceptors:                   5
##########                        HBond_Donors:                   1
##########                         Heavy_Atoms:                  24
##########                          Grid_Score:          -32.889019
##########                     Grid_vdw_energy:          -31.784758
##########                      Grid_es_energy:           -1.104262
##########           Internal_energy_repulsive:           21.091131

@<TRIPOS>MOLECULE
ZINC000433533595
 49 50 1 0 0
SMALL
USER_CHARGES


@<TRIPOS>ATOM
      1 C1         -8.5640    2.3782   55.8417 C.3     1  ZINC000433533595   -0.1500
      2 C2         -8.9713    1.4315   54.7109 C.3     1  ZINC000433533595   -0.1200
      3 C3         -9.4592    2.2482   53.5126 C.3     1  ZINC000433533595   -0.1300
      4 C4         -9.9097    1.3007   52.3991 C.3     1  ZINC000433533595    0.1000
      5 N5         -8.8132    0.3905   52.0590 N.am    1  ZINC000433533595   -0.5500
      6 C6         -8.9990   -0.9428   52.1251 C.2     1  ZINC000433533595    0.5100
      7 O7         -8.0907   -1.6967   51.8434 O.2     1  ZINC000433533595   -0.5100
      8 C8        -10.3226   -1.4923   52.5449 C.2     1  ZINC000433533595    0.5000
      9 O9        -10.6541   -1.4514   53.7120 O.2     1  ZINC000433533595   -0.4900
     10 N10       -11.1489   -2.0337   51.6282 N.am    1  ZINC000433533595   -0.6300
     11 C11       -12.3886   -2.5484   52.0214 C.ar    1  ZINC000433533595    0.1200
     12 C12       -12.4748   -3.3925   53.1193 C.ar    1  ZINC000433533595   -0.0600
     13 C13       -13.7018   -3.8999   53.5059 C.ar    1  ZINC000433533595   -0.1100
     14 Br14      -13.8177   -5.0497   55.0027 Br      1  ZINC000433533595   -0.0400
     15 C15       -14.8445   -3.5679   52.8004 C.ar    1  ZINC000433533595   -0.0600
     16 C16       -14.7660   -2.7273   51.7053 C.ar    1  ZINC000433533595   -0.1900
     17 C17       -13.5418   -2.2101   51.3150 C.ar    1  ZINC000433533595    0.1300
     18 O18       -13.4635   -1.3833   50.2382 O.3     1  ZINC000433533595   -0.3100
     19 C19       -14.3565   -0.2680   50.2103 C.3     1  ZINC000433533595    0.0800
     20 C20       -13.5729    1.0194   50.4733 C.3     1  ZINC000433533595   -0.1500
     21 C21       -15.0268   -0.1857   48.8374 C.3     1  ZINC000433533595   -0.1800
     22 C22        -7.5148    0.9297   51.6471 C.3     1  ZINC000433533595    0.0600
     23 C23        -6.9910    0.5323   50.2656 C.3     1  ZINC000433533595   -0.1900
     24 C24        -7.5035    1.9531   50.5097 C.3     1  ZINC000433533595   -0.1800
     25 H25        -9.4225    2.9809   56.1381 H       1  ZINC000433533595    0.0500
     26 H26        -8.2164    1.7963   56.6953 H       1  ZINC000433533595    0.0500
     27 H27        -7.7627    3.0320   55.4971 H       1  ZINC000433533595    0.0500
     28 H28        -8.1128    0.8288   54.4146 H       1  ZINC000433533595    0.0700
     29 H29        -9.7727    0.7776   55.0555 H       1  ZINC000433533595    0.0600
     30 H30       -10.2971    2.8752   53.8173 H       1  ZINC000433533595    0.0600
     31 H31        -8.6479    2.8780   53.1478 H       1  ZINC000433533595    0.0700
     32 H32       -10.7692    0.7230   52.7391 H       1  ZINC000433533595    0.1100
     33 H33       -10.1869    1.8804   51.5187 H       1  ZINC000433533595    0.0800
     34 H34       -10.8839   -2.0665   50.6957 H       1  ZINC000433533595    0.4300
     35 H35       -11.5841   -3.6534   53.6714 H       1  ZINC000433533595    0.1600
     36 H36       -15.8007   -3.9668   53.1057 H       1  ZINC000433533595    0.1400
     37 H37       -15.6602   -2.4702   51.1569 H       1  ZINC000433533595    0.1500
     38 H38       -15.1184   -0.3933   50.9797 H       1  ZINC000433533595    0.0800
     39 H39       -12.8110    1.1446   49.7039 H       1  ZINC000433533595    0.0700
     40 H40       -14.2540    1.8701   50.4520 H       1  ZINC000433533595    0.0800
     41 H41       -13.0953    0.9608   51.4514 H       1  ZINC000433533595    0.0700
     42 H42       -14.2648   -0.0605   48.0680 H       1  ZINC000433533595    0.0700
     43 H43       -15.5850   -1.1030   48.6500 H       1  ZINC000433533595    0.0600
     44 H44       -15.7079    0.6650   48.8161 H       1  ZINC000433533595    0.0800
     45 H45        -6.7837    1.0565   52.4455 H       1  ZINC000433533595    0.1400
     46 H46        -5.9151    0.3974   50.1549 H       1  ZINC000433533595    0.0900
     47 H47        -7.6125   -0.1303   49.6632 H       1  ZINC000433533595    0.1400
     48 H48        -8.4621    2.2252   50.0681 H       1  ZINC000433533595    0.1000
     49 H49        -6.7647    2.7529   50.5598 H       1  ZINC000433533595    0.1000
@<TRIPOS>BOND
     1     1     2    1
     2     1    25    1
     3     1    26    1
     4     1    27    1
     5     2     3    1
     6     2    28    1
     7     2    29    1
     8     3     4    1
     9     3    30    1
    10     3    31    1
    11     4     5    1
    12     4    32    1
    13     4    33    1
    14     5     6   am
    15     5    22    1
    16     6     7    2
    17     6     8    1
    18     8     9    2
    19     8    10   am
    20    10    11    1
    21    10    34    1
    22    11    17   ar
    23    11    12   ar
    24    12    13   ar
    25    12    35    1
    26    13    14    1
    27    13    15   ar
    28    15    16   ar
    29    15    36    1
    30    16    17   ar
    31    16    37    1
    32    17    18    1
    33    18    19    1
    34    19    20    1
    35    19    21    1
    36    19    38    1
    37    20    39    1
    38    20    40    1
    39    20    41    1
    40    21    42    1
    41    21    43    1
    42    21    44    1
    43    22    24    1
    44    22    23    1
    45    22    45    1
    46    23    24    1
    47    23    46    1
    48    23    47    1
    49    24    48    1
    50    24    49    1
@<TRIPOS>SUBSTRUCTURE
     1 ZINC000433533595        1 TEMP              0 ****  ****    0 ROOT


##########                                Name:    ZINC000089894387
##########                DOCK_Rotatable_Bonds:                   8
##########                         Heavy_Atoms:                  22
##########                    Molecular_Weight:             326.823
##########                DOCK_Rotatable_Bonds:                   8
##########                       Formal_Charge:          -0.0300003
##########                     HBond_Acceptors:                   6
##########                        HBond_Donors:                   2
##########                         Heavy_Atoms:                  22
##########                          Grid_Score:          -32.858414
##########                     Grid_vdw_energy:          -32.711163
##########                      Grid_es_energy:           -0.147251
##########           Internal_energy_repulsive:           13.119373

@<TRIPOS>MOLECULE
ZINC000089894387
 45 46 1 0 0
SMALL
USER_CHARGES


@<TRIPOS>ATOM
      1 C1        -12.7995   -4.1751   54.3679 C.3     1  ZINC000089894387   -0.1700
      2 C2        -12.9422   -4.3116   55.8852 C.3     1  ZINC000089894387    0.1700
      3 H3        -12.8354   -5.3590   56.1674 H       1  ZINC000089894387    0.0900
      4 N4        -11.9026   -3.5192   56.5466 N.am    1  ZINC000089894387   -0.7400
      5 C5        -11.1877   -4.0541   57.5562 C.2     1  ZINC000089894387    0.7100
      6 O6        -11.4065   -5.1937   57.9191 O.2     1  ZINC000089894387   -0.5900
      7 N7        -10.2302   -3.3256   58.1637 N.am    1  ZINC000089894387   -0.7500
      8 C8         -9.4518   -3.9076   59.2599 C.3     1  ZINC000089894387    0.1400
      9 C9         -9.7873   -3.1823   60.5647 C.3     1  ZINC000089894387    0.0500
     10 O10        -9.9074   -1.7807   60.3133 O.3     1  ZINC000089894387   -0.3100
     11 C11       -10.2643   -0.9941   61.3625 C.ar    1  ZINC000089894387    0.1400
     12 C12       -11.4269   -0.2399   61.3013 C.ar    1  ZINC000089894387   -0.2100
     13 C13       -11.7882    0.5593   62.3689 C.ar    1  ZINC000089894387   -0.0700
     14 C14       -10.9923    0.6082   63.4981 C.ar    1  ZINC000089894387   -0.1500
     15 C15        -9.8313   -0.1429   63.5619 C.ar    1  ZINC000089894387    0.0000
     16 Cl16       -8.8339   -0.0793   64.9813 Cl      1  ZINC000089894387   -0.0600
     17 C17        -9.4693   -0.9486   62.4985 C.ar    1  ZINC000089894387   -0.1500
     18 C18       -14.3204   -3.8055   56.3155 C.3     1  ZINC000089894387   -0.1000
     19 C19       -14.6890   -4.4135   57.6722 C.3     1  ZINC000089894387   -0.1600
     20 C20       -16.0327   -3.8410   58.1311 C.3     1  ZINC000089894387    0.0600
     21 O21       -15.9435   -2.4164   58.1998 O.3     1  ZINC000089894387   -0.3800
     22 C22       -15.6478   -1.7893   56.9502 C.3     1  ZINC000089894387    0.0600
     23 C23       -14.2887   -2.2794   56.4439 C.3     1  ZINC000089894387   -0.1500
     24 H24       -12.9064   -3.1277   54.0857 H       1  ZINC000089894387    0.0600
     25 H25       -11.8177   -4.5357   54.0614 H       1  ZINC000089894387    0.0600
     26 H26       -13.5730   -4.7647   53.8758 H       1  ZINC000089894387    0.0700
     27 H27       -11.7289   -2.6096   56.2580 H       1  ZINC000089894387    0.3900
     28 H28       -10.0564   -2.4160   57.8751 H       1  ZINC000089894387    0.4000
     29 H29        -9.6974   -4.9649   59.3585 H       1  ZINC000089894387    0.0800
     30 H30        -8.3882   -3.7997   59.0475 H       1  ZINC000089894387    0.0900
     31 H31       -10.7293   -3.5625   60.9600 H       1  ZINC000089894387    0.0900
     32 H32        -8.9928   -3.3544   61.2908 H       1  ZINC000089894387    0.0700
     33 H33       -12.0492   -0.2772   60.4195 H       1  ZINC000089894387    0.1300
     34 H34       -12.6931    1.1467   62.3211 H       1  ZINC000089894387    0.1400
     35 H35       -11.2764    1.2335   64.3314 H       1  ZINC000089894387    0.1400
     36 H36        -8.5637   -1.5349   62.5485 H       1  ZINC000089894387    0.1400
     37 H37       -15.0631   -4.0934   55.5714 H       1  ZINC000089894387    0.0800
     38 H38       -14.7679   -5.4964   57.5767 H       1  ZINC000089894387    0.0700
     39 H39       -13.9191   -4.1665   58.4033 H       1  ZINC000089894387    0.0800
     40 H40       -16.8096   -4.1227   57.4204 H       1  ZINC000089894387    0.0500
     41 H41       -16.2795   -4.2377   59.1159 H       1  ZINC000089894387    0.0900
     42 H42       -16.4198   -2.0443   56.2241 H       1  ZINC000089894387    0.0500
     43 H43       -15.6175   -0.7081   57.0843 H       1  ZINC000089894387    0.1000
     44 H44       -13.5107   -1.9893   57.1501 H       1  ZINC000089894387    0.0800
     45 H45       -14.0814   -1.8361   55.4699 H       1  ZINC000089894387    0.0800
@<TRIPOS>BOND
     1     1     2    1
     2     1    24    1
     3     1    25    1
     4     1    26    1
     5     2     3    1
     6     2     4    1
     7     2    18    1
     8     4     5   am
     9     4    27    1
    10     5     6    2
    11     5     7   am
    12     7     8    1
    13     7    28    1
    14     8     9    1
    15     8    29    1
    16     8    30    1
    17     9    10    1
    18     9    31    1
    19     9    32    1
    20    10    11    1
    21    11    17   ar
    22    11    12   ar
    23    12    13   ar
    24    12    33    1
    25    13    14   ar
    26    13    34    1
    27    14    15   ar
    28    14    35    1
    29    15    16    1
    30    15    17   ar
    31    17    36    1
    32    18    23    1
    33    18    19    1
    34    18    37    1
    35    19    20    1
    36    19    38    1
    37    19    39    1
    38    20    21    1
    39    20    40    1
    40    20    41    1
    41    21    22    1
    42    22    23    1
    43    22    42    1
    44    22    43    1
    45    23    44    1
    46    23    45    1
@<TRIPOS>SUBSTRUCTURE
     1 ZINC000089894387        1 TEMP              0 ****  ****    0 ROOT


##########                                Name:    ZINC000549659617
##########                DOCK_Rotatable_Bonds:                   9
##########                         Heavy_Atoms:                  28
##########                    Molecular_Weight:              418.48
##########                DOCK_Rotatable_Bonds:                   9
##########                       Formal_Charge:          0.00999956
##########                     HBond_Acceptors:                   9
##########                        HBond_Donors:                   1
##########                         Heavy_Atoms:                  28
##########                          Grid_Score:          -32.852367
##########                     Grid_vdw_energy:          -31.706562
##########                      Grid_es_energy:           -1.145805
##########           Internal_energy_repulsive:           23.101044

@<TRIPOS>MOLECULE
ZINC000549659617
 53 55 1 0 0
SMALL
USER_CHARGES


@<TRIPOS>ATOM
      1 C1        -13.6796   -4.3792   57.5531 C.3     1  ZINC000549659617   -0.1500
      2 C2        -12.5483   -3.7901   56.7080 C.3     1  ZINC000549659617   -0.1500
      3 C3        -12.8483   -2.3201   56.4080 C.3     1  ZINC000549659617    0.1100
      4 N4        -11.5919   -1.6025   56.1779 N.am    1  ZINC000549659617   -0.6100
      5 C5        -10.8567   -1.1782   57.2247 C.2     1  ZINC000549659617    0.7100
      6 O6         -9.8133   -0.5840   57.0338 O.2     1  ZINC000549659617   -0.5700
      7 N7        -11.2782   -1.4126   58.4833 N.am    1  ZINC000549659617   -0.7400
      8 C8        -10.4782   -0.9528   59.6212 C.3     1  ZINC000549659617    0.2300
      9 H9         -9.7190   -0.2527   59.2725 H       1  ZINC000549659617    0.1100
     10 C10       -11.3737   -0.2662   60.6201 C.ar    1  ZINC000549659617   -0.0900
     11 C11       -11.1062    1.0327   61.0096 C.ar    1  ZINC000549659617   -0.0800
     12 C12       -11.9278    1.6626   61.9260 C.ar    1  ZINC000549659617   -0.1100
     13 C13       -13.0168    0.9936   62.4522 C.ar    1  ZINC000549659617   -0.0700
     14 C14       -13.2849   -0.3054   62.0619 C.ar    1  ZINC000549659617   -0.1800
     15 C15       -14.4719   -1.0349   62.6359 C.3     1  ZINC000549659617    0.5100
     16 F16       -14.7252   -0.5677   63.9301 F       1  ZINC000549659617   -0.1800
     17 F17       -15.5930   -0.8078   61.8304 F       1  ZINC000549659617   -0.1700
     18 F18       -14.1996   -2.4064   62.6802 F       1  ZINC000549659617   -0.1700
     19 C19       -12.4660   -0.9336   61.1425 C.ar    1  ZINC000549659617   -0.0500
     20 C20        -9.7992   -2.1525   60.2851 C.3     1  ZINC000549659617   -0.1700
     21 C21       -10.5244   -3.4982   60.2229 C.3     1  ZINC000549659617   -0.1700
     22 C22        -9.2752   -3.2624   59.3716 C.3     1  ZINC000549659617   -0.1800
     23 C23       -11.1347   -1.3462   54.8098 C.3     1  ZINC000549659617    0.1700
     24 H24       -10.0928   -1.0263   54.8185 H       1  ZINC000549659617    0.1100
     25 C25       -12.0124   -0.2654   54.1547 C.3     1  ZINC000549659617   -0.1400
     26 C26       -11.7390   -0.2592   52.6375 C.3     1  ZINC000549659617   -0.5900
     27 S27       -11.2229   -1.9684   52.2398 S.o2    1  ZINC000549659617    2.3900
     28 O28       -12.2286   -2.5933   51.4542 O.2     1  ZINC000549659617   -0.9300
     29 O29        -9.8754   -1.9605   51.7886 O.2     1  ZINC000549659617   -0.9400
     30 C30       -11.2898   -2.6267   53.9495 C.3     1  ZINC000549659617   -0.6100
     31 H31       -13.4659   -5.4265   57.7669 H       1  ZINC000549659617    0.0600
     32 H32       -13.7597   -3.8263   58.4890 H       1  ZINC000549659617    0.0600
     33 H33       -14.6190   -4.3045   57.0054 H       1  ZINC000549659617    0.0600
     34 H34       -11.6088   -3.8648   57.2558 H       1  ZINC000549659617    0.0700
     35 H35       -12.4682   -4.3430   55.7721 H       1  ZINC000549659617    0.0700
     36 H36       -13.4743   -2.2513   55.5183 H       1  ZINC000549659617    0.0800
     37 H37       -13.3706   -1.8756   57.2552 H       1  ZINC000549659617    0.0900
     38 H38       -12.1113   -1.8856   58.6356 H       1  ZINC000549659617    0.4000
     39 H39       -10.2553    1.5553   60.5985 H       1  ZINC000549659617    0.1300
     40 H40       -11.7183    2.6772   62.2310 H       1  ZINC000549659617    0.1400
     41 H41       -13.6581    1.4854   63.1686 H       1  ZINC000549659617    0.1400
     42 H42       -12.6754   -1.9482   60.8376 H       1  ZINC000549659617    0.1400
     43 H43        -9.2270   -1.9298   61.1857 H       1  ZINC000549659617    0.1100
     44 H44       -10.4294   -4.1612   61.0830 H       1  ZINC000549659617    0.0900
     45 H45       -11.4852   -3.5290   59.7092 H       1  ZINC000549659617    0.0900
     46 H46        -9.4143   -3.1379   58.2977 H       1  ZINC000549659617    0.1200
     47 H47        -8.3585   -3.7701   59.6714 H       1  ZINC000549659617    0.0900
     48 H48       -13.0639   -0.4872   54.3367 H       1  ZINC000549659617    0.1100
     49 H49       -11.7675    0.7101   54.5751 H       1  ZINC000549659617    0.0900
     50 H50       -12.6458   -0.0007   52.0905 H       1  ZINC000549659617    0.1400
     51 H51       -10.9396    0.4425   52.3997 H       1  ZINC000549659617    0.1400
     52 H52       -10.4666   -3.3178   54.1305 H       1  ZINC000549659617    0.1400
     53 H53       -12.2491   -3.1072   54.1417 H       1  ZINC000549659617    0.1600
@<TRIPOS>BOND
     1     1     2    1
     2     1    31    1
     3     1    32    1
     4     1    33    1
     5     2     3    1
     6     2    34    1
     7     2    35    1
     8     3     4    1
     9     3    36    1
    10     3    37    1
    11     4     5   am
    12     4    23    1
    13     5     6    2
    14     5     7   am
    15     7     8    1
    16     7    38    1
    17     8     9    1
    18     8    10    1
    19     8    20    1
    20    10    19   ar
    21    10    11   ar
    22    11    12   ar
    23    11    39    1
    24    12    13   ar
    25    12    40    1
    26    13    14   ar
    27    13    41    1
    28    14    15    1
    29    14    19   ar
    30    15    16    1
    31    15    17    1
    32    15    18    1
    33    19    42    1
    34    20    22    1
    35    20    21    1
    36    20    43    1
    37    21    22    1
    38    21    44    1
    39    21    45    1
    40    22    46    1
    41    22    47    1
    42    23    24    1
    43    23    30    1
    44    23    25    1
    45    25    26    1
    46    25    48    1
    47    25    49    1
    48    26    27    1
    49    26    50    1
    50    26    51    1
    51    27    28    2
    52    27    29    2
    53    27    30    1
    54    30    52    1
    55    30    53    1
@<TRIPOS>SUBSTRUCTURE
     1 ZINC000549659617        1 TEMP              0 ****  ****    0 ROOT


##########                                Name:    ZINC000076573199
##########                DOCK_Rotatable_Bonds:                  10
##########                         Heavy_Atoms:                  24
##########                    Molecular_Weight:             333.431
##########                DOCK_Rotatable_Bonds:                  10
##########                       Formal_Charge:          -0.0200009
##########                     HBond_Acceptors:                   6
##########                        HBond_Donors:                   3
##########                         Heavy_Atoms:                  24
##########                          Grid_Score:          -32.842041
##########                     Grid_vdw_energy:          -31.240778
##########                      Grid_es_energy:           -1.601262
##########           Internal_energy_repulsive:           19.206141

@<TRIPOS>MOLECULE
ZINC000076573199
 51 51 1 0 0
SMALL
USER_CHARGES


@<TRIPOS>ATOM
      1 C1        -16.1075   -3.6085   58.2218 C.3     1  ZINC000076573199   -0.1500
      2 C2        -14.9566   -4.5232   57.7979 C.3     1  ZINC000076573199   -0.1200
      3 C3        -14.0824   -3.8005   56.7711 C.3     1  ZINC000076573199   -0.1000
      4 H4        -13.8685   -2.7911   57.1223 H       1  ZINC000076573199    0.0700
      5 C5        -14.8206   -3.7292   55.4329 C.3     1  ZINC000076573199   -0.1500
      6 C6        -12.7702   -4.5661   56.5895 C.3     1  ZINC000076573199   -0.1200
      7 C7        -11.5911   -3.6115   56.7882 C.3     1  ZINC000076573199    0.1400
      8 H8        -10.6587   -4.1754   56.7624 H       1  ZINC000076573199    0.1000
      9 C9        -11.5865   -2.5671   55.6701 C.3     1  ZINC000076573199   -0.1700
     10 N10       -11.7198   -2.9396   58.0836 N.am    1  ZINC000076573199   -0.6900
     11 C11       -10.7161   -3.0075   58.9806 C.2     1  ZINC000076573199    0.5100
     12 O12        -9.7064   -3.6265   58.7157 O.2     1  ZINC000076573199   -0.5100
     13 C13       -10.8465   -2.3209   60.3006 C.2     1  ZINC000076573199    0.5100
     14 O14       -10.5198   -2.8957   61.3186 O.2     1  ZINC000076573199   -0.5000
     15 N15       -11.3270   -1.0632   60.3615 N.am    1  ZINC000076573199   -0.6400
     16 C16       -11.4490   -0.4210   61.5963 C.ar    1  ZINC000076573199    0.1500
     17 C17       -12.7067   -0.2007   62.1446 C.ar    1  ZINC000076573199   -0.1300
     18 C18       -12.8278    0.4340   63.3659 C.ar    1  ZINC000076573199   -0.0800
     19 C19       -11.7000    0.8515   64.0458 C.ar    1  ZINC000076573199   -0.1200
     20 C20       -11.8369    1.5429   65.3778 C.3     1  ZINC000076573199   -0.1100
     21 C21       -10.4394    0.6343   63.5030 C.ar    1  ZINC000076573199    0.1600
     22 N22        -9.2977    1.0576   64.1924 N.am    1  ZINC000076573199   -0.6700
     23 C23        -8.7026    0.2356   65.0793 C.2     1  ZINC000076573199    0.5100
     24 C24        -7.4731    0.6914   65.8219 C.3     1  ZINC000076573199   -0.1700
     25 O25        -9.1566   -0.8710   65.2799 O.2     1  ZINC000076573199   -0.5200
     26 C26       -10.3136   -0.0072   62.2796 C.ar    1  ZINC000076573199   -0.1400
     27 H27       -16.7083   -3.3524   57.3491 H       1  ZINC000076573199    0.0600
     28 H28       -16.7302   -4.1233   58.9533 H       1  ZINC000076573199    0.0500
     29 H29       -15.7039   -2.6981   58.6648 H       1  ZINC000076573199    0.0500
     30 H30       -14.3558   -4.7792   58.6706 H       1  ZINC000076573199    0.0600
     31 H31       -15.3603   -5.4336   57.3549 H       1  ZINC000076573199    0.0600
     32 H32       -14.9610   -4.7367   55.0413 H       1  ZINC000076573199    0.0600
     33 H33       -15.7923   -3.2573   55.5787 H       1  ZINC000076573199    0.0600
     34 H34       -14.2344   -3.1428   54.7254 H       1  ZINC000076573199    0.0500
     35 H35       -12.7142   -5.3702   57.3232 H       1  ZINC000076573199    0.0800
     36 H36       -12.7314   -4.9874   55.5850 H       1  ZINC000076573199    0.0700
     37 H37       -10.7465   -1.8870   55.8117 H       1  ZINC000076573199    0.0600
     38 H38       -11.4908   -3.0670   54.7063 H       1  ZINC000076573199    0.0700
     39 H39       -12.5190   -2.0031   55.6959 H       1  ZINC000076573199    0.0600
     40 H40       -12.5273   -2.4458   58.2958 H       1  ZINC000076573199    0.4100
     41 H41       -11.5880   -0.6039   59.5479 H       1  ZINC000076573199    0.4200
     42 H42       -13.5903   -0.5256   61.6155 H       1  ZINC000076573199    0.1400
     43 H43       -13.8064    0.6044   63.7899 H       1  ZINC000076573199    0.1300
     44 H44       -11.8209    0.8006   66.1757 H       1  ZINC000076573199    0.0700
     45 H45       -11.0093    2.2391   65.5125 H       1  ZINC000076573199    0.0600
     46 H46       -12.7798    2.0890   65.4084 H       1  ZINC000076573199    0.0700
     47 H47        -8.9346    1.9427   64.0321 H       1  ZINC000076573199    0.4100
     48 H48        -7.7100    1.5812   66.4054 H       1  ZINC000076573199    0.0900
     49 H49        -7.1367   -0.1019   66.4895 H       1  ZINC000076573199    0.1000
     50 H50        -6.6831    0.9248   65.1080 H       1  ZINC000076573199    0.0900
     51 H51        -9.3348   -0.1772   61.8557 H       1  ZINC000076573199    0.1400
@<TRIPOS>BOND
     1     1     2    1
     2     1    27    1
     3     1    28    1
     4     1    29    1
     5     2     3    1
     6     2    30    1
     7     2    31    1
     8     3     4    1
     9     3     5    1
    10     3     6    1
    11     5    32    1
    12     5    33    1
    13     5    34    1
    14     6     7    1
    15     6    35    1
    16     6    36    1
    17     7     8    1
    18     7     9    1
    19     7    10    1
    20     9    37    1
    21     9    38    1
    22     9    39    1
    23    10    11   am
    24    10    40    1
    25    11    12    2
    26    11    13    1
    27    13    14    2
    28    13    15   am
    29    15    16    1
    30    15    41    1
    31    16    26   ar
    32    16    17   ar
    33    17    18   ar
    34    17    42    1
    35    18    19   ar
    36    18    43    1
    37    19    20    1
    38    19    21   ar
    39    20    44    1
    40    20    45    1
    41    20    46    1
    42    21    22    1
    43    21    26   ar
    44    22    23   am
    45    22    47    1
    46    23    24    1
    47    23    25    2
    48    24    48    1
    49    24    49    1
    50    24    50    1
    51    26    51    1
@<TRIPOS>SUBSTRUCTURE
     1 ZINC000076573199        1 TEMP              0 ****  ****    0 ROOT


##########                                Name:    ZINC000459459628
##########                DOCK_Rotatable_Bonds:                   8
##########                         Heavy_Atoms:                  27
##########                    Molecular_Weight:             377.366
##########                DOCK_Rotatable_Bonds:                   8
##########                       Formal_Charge:         -0.00999984
##########                     HBond_Acceptors:                   8
##########                        HBond_Donors:                   1
##########                         Heavy_Atoms:                  27
##########                          Grid_Score:          -32.841103
##########                     Grid_vdw_energy:          -30.829552
##########                      Grid_es_energy:           -2.011551
##########           Internal_energy_repulsive:           13.016255

@<TRIPOS>MOLECULE
ZINC000459459628
 45 46 1 0 0
SMALL
USER_CHARGES


@<TRIPOS>ATOM
      1 C1        -10.4063   -0.2355   59.1059 C.3     1  ZINC000459459628   -0.1600
      2 C2        -11.0948   -1.3210   59.9359 C.3     1  ZINC000459459628    0.1600
      3 H3        -12.1669   -1.3027   59.7402 H       1  ZINC000459459628    0.1100
      4 C4        -10.8432   -1.0625   61.4228 C.3     1  ZINC000459459628   -0.0900
      5 C5        -11.8725   -0.0937   61.9453 C.ar    1  ZINC000459459628   -0.0500
      6 C6        -11.4753    1.1281   62.4551 C.ar    1  ZINC000459459628   -0.1200
      7 C7        -12.4185    2.0179   62.9350 C.ar    1  ZINC000459459628   -0.0900
      8 C8        -13.7596    1.6866   62.9053 C.ar    1  ZINC000459459628   -0.1600
      9 C9        -14.1589    0.4631   62.3943 C.ar    1  ZINC000459459628    0.1000
     10 F10       -15.4699    0.1380   62.3648 F       1  ZINC000459459628   -0.1400
     11 C11       -13.2140   -0.4250   61.9093 C.ar    1  ZINC000459459628   -0.1500
     12 N12       -10.5538   -2.6323   59.5698 N.am    1  ZINC000459459628   -0.6200
     13 C13        -9.4779   -3.2289   60.3653 C.3     1  ZINC000459459628    0.0700
     14 C14       -11.0459   -3.2898   58.5011 C.2     1  ZINC000459459628    0.7100
     15 O15       -10.5960   -4.3774   58.1963 O.2     1  ZINC000459459628   -0.5700
     16 N16       -12.0367   -2.7414   57.7703 N.am    1  ZINC000459459628   -0.6800
     17 C17       -12.5486   -3.4252   56.6586 C.ar    1  ZINC000459459628    0.1500
     18 C18       -12.0045   -3.2131   55.4053 C.ar    1  ZINC000459459628   -0.0400
     19 C19       -12.5174   -3.8972   54.2998 C.ar    1  ZINC000459459628   -0.0300
     20 C20       -11.9575   -3.6817   52.9996 C.1     1  ZINC000459459628    0.2600
     21 N21       -11.5134   -3.5108   51.9681 N.1     1  ZINC000459459628   -0.4100
     22 C22       -13.5774   -4.7920   54.4660 C.ar    1  ZINC000459459628   -0.0500
     23 C23       -14.1158   -4.9987   55.7183 C.ar    1  ZINC000459459628   -0.1700
     24 C24       -13.6037   -4.3245   56.8175 C.ar    1  ZINC000459459628    0.1100
     25 O25       -14.1378   -4.5320   58.0490 O.3     1  ZINC000459459628   -0.3200
     26 C26       -15.5119   -4.1827   58.2275 C.3     1  ZINC000459459628    0.4100
     27 F27       -15.9272   -4.5628   59.5082 F       1  ZINC000459459628   -0.1900
     28 F28       -15.6647   -2.8000   58.0789 F       1  ZINC000459459628   -0.1900
     29 H29        -9.3341   -0.2538   59.3016 H       1  ZINC000459459628    0.0600
     30 H30       -10.5854   -0.4197   58.0467 H       1  ZINC000459459628    0.0600
     31 H31       -10.8088    0.7401   59.3783 H       1  ZINC000459459628    0.0700
     32 H32       -10.9158   -2.0012   61.9721 H       1  ZINC000459459628    0.0800
     33 H33        -9.8470   -0.6404   61.5547 H       1  ZINC000459459628    0.0900
     34 H34       -10.4272    1.3877   62.4790 H       1  ZINC000459459628    0.1300
     35 H35       -12.1068    2.9721   63.3334 H       1  ZINC000459459628    0.1300
     36 H36       -14.4962    2.3816   63.2808 H       1  ZINC000459459628    0.1300
     37 H37       -13.5243   -1.3793   61.5103 H       1  ZINC000459459628    0.1300
     38 H38        -9.9087   -3.8325   61.1642 H       1  ZINC000459459628    0.0600
     39 H39        -8.8602   -3.8597   59.7260 H       1  ZINC000459459628    0.0700
     40 H40        -8.8646   -2.4384   60.7977 H       1  ZINC000459459628    0.0800
     41 H41       -12.3956   -1.8737   58.0134 H       1  ZINC000459459628    0.4100
     42 H42       -11.1854   -2.5202   55.2809 H       1  ZINC000459459628    0.1600
     43 H43       -13.9754   -5.3217   53.6132 H       1  ZINC000459459628    0.1400
     44 H44       -14.9356   -5.6903   55.8447 H       1  ZINC000459459628    0.1500
     45 H45       -16.1174   -4.6973   57.4814 H       1  ZINC000459459628    0.1900
@<TRIPOS>BOND
     1     1     2    1
     2     1    29    1
     3     1    30    1
     4     1    31    1
     5     2     3    1
     6     2     4    1
     7     2    12    1
     8     4     5    1
     9     4    32    1
    10     4    33    1
    11     5    11   ar
    12     5     6   ar
    13     6     7   ar
    14     6    34    1
    15     7     8   ar
    16     7    35    1
    17     8     9   ar
    18     8    36    1
    19     9    10    1
    20     9    11   ar
    21    11    37    1
    22    12    13    1
    23    12    14   am
    24    13    38    1
    25    13    39    1
    26    13    40    1
    27    14    15    2
    28    14    16   am
    29    16    17    1
    30    16    41    1
    31    17    24   ar
    32    17    18   ar
    33    18    19   ar
    34    18    42    1
    35    19    20    1
    36    19    22   ar
    37    20    21    3
    38    22    23   ar
    39    22    43    1
    40    23    24   ar
    41    23    44    1
    42    24    25    1
    43    25    26    1
    44    26    27    1
    45    26    28    1
    46    26    45    1
@<TRIPOS>SUBSTRUCTURE
     1 ZINC000459459628        1 TEMP              0 ****  ****    0 ROOT


##########                                Name:    ZINC000540473851
##########                DOCK_Rotatable_Bonds:                   5
##########                         Heavy_Atoms:                  29
##########                    Molecular_Weight:             411.503
##########                DOCK_Rotatable_Bonds:                   5
##########                       Formal_Charge:           0.0200001
##########                     HBond_Acceptors:                   8
##########                        HBond_Donors:                   0
##########                         Heavy_Atoms:                  29
##########                          Grid_Score:          -32.800560
##########                     Grid_vdw_energy:          -32.735725
##########                      Grid_es_energy:           -0.064834
##########           Internal_energy_repulsive:           22.296572

@<TRIPOS>MOLECULE
ZINC000540473851
 51 54 1 0 0
SMALL
USER_CHARGES


@<TRIPOS>ATOM
      1 C1        -11.7477   -3.7060   53.1696 C.3     1  ZINC000540473851   -0.0800
      2 C2        -11.3721   -2.2533   53.0297 C.2     1  ZINC000540473851    0.1500
      3 C3        -12.1570   -1.2320   53.4950 C.2     1  ZINC000540473851   -0.3100
      4 C4        -13.4464   -1.3750   54.1821 C.2     1  ZINC000540473851    0.6000
      5 O5        -14.4450   -1.6602   53.5482 O.2     1  ZINC000540473851   -0.5100
      6 N6        -13.5238   -1.1906   55.5148 N.am    1  ZINC000540473851   -0.6100
      7 C7        -14.8043   -1.3349   56.2238 C.3     1  ZINC000540473851    0.1000
      8 C8        -14.5996   -2.2831   57.4101 C.3     1  ZINC000540473851    0.0400
      9 N9        -13.4847   -1.7977   58.2342 N.3     1  ZINC000540473851   -0.5300
     10 C10       -13.3656   -2.5796   59.4721 C.3     1  ZINC000540473851    0.1200
     11 H11       -13.4134   -3.6428   59.2363 H       1  ZINC000540473851    0.0500
     12 C12       -14.5117   -2.2150   60.4179 C.3     1  ZINC000540473851   -0.1400
     13 C13       -12.0486   -2.2711   60.1364 C.ar    1  ZINC000540473851   -0.0500
     14 C14       -11.9093   -1.1238   60.8945 C.ar    1  ZINC000540473851   -0.1000
     15 C15       -10.7017   -0.8393   61.5047 C.ar    1  ZINC000540473851   -0.0900
     16 C16        -9.6324   -1.7019   61.3571 C.ar    1  ZINC000540473851   -0.1500
     17 C17        -9.7709   -2.8520   60.5982 C.ar    1  ZINC000540473851    0.1000
     18 F18        -8.7261   -3.6962   60.4534 F       1  ZINC000540473851   -0.1400
     19 C19       -10.9821   -3.1385   59.9922 C.ar    1  ZINC000540473851   -0.1500
     20 C20       -12.2227   -1.8071   57.4822 C.3     1  ZINC000540473851    0.0400
     21 C21       -12.3288   -0.8454   56.2998 C.3     1  ZINC000540473851    0.1200
     22 S22       -11.3413    0.2845   53.1214 S.3     1  ZINC000540473851    0.2800
     23 C23       -10.0545   -0.5733   52.3934 C.2     1  ZINC000540473851    0.0800
     24 C24        -8.8629    0.0540   51.7805 C.ar    1  ZINC000540473851    0.3800
     25 N25        -7.9017   -0.7201   51.2932 N.ar    1  ZINC000540473851   -0.5100
     26 C26        -6.8246   -0.1916   50.7395 C.ar    1  ZINC000540473851    0.1600
     27 C27        -6.7066    1.1892   50.6714 C.ar    1  ZINC000540473851   -0.2100
     28 C28        -7.7302    1.9691   51.1904 C.ar    1  ZINC000540473851    0.1500
     29 N29        -8.7832    1.3774   51.7262 N.ar    1  ZINC000540473851   -0.4700
     30 N30       -10.2668   -1.8568   52.4592 N.2     1  ZINC000540473851   -0.4300
     31 H31       -11.3564   -4.0936   54.1102 H       1  ZINC000540473851    0.0900
     32 H32       -12.8334   -3.8031   53.1603 H       1  ZINC000540473851    0.0800
     33 H33       -11.3252   -4.2721   52.3394 H       1  ZINC000540473851    0.0800
     34 H34       -15.1341   -0.3612   56.5861 H       1  ZINC000540473851    0.0900
     35 H35       -15.5522   -1.7499   55.5482 H       1  ZINC000540473851    0.0900
     36 H36       -15.5086   -2.3156   58.0108 H       1  ZINC000540473851    0.1000
     37 H37       -14.3710   -3.2830   57.0413 H       1  ZINC000540473851    0.0400
     38 H38       -14.4640   -1.1519   60.6536 H       1  ZINC000540473851    0.0700
     39 H39       -15.4643   -2.4382   59.9372 H       1  ZINC000540473851    0.0600
     40 H40       -14.4234   -2.7952   61.3363 H       1  ZINC000540473851    0.0600
     41 H41       -12.7445   -0.4486   61.0100 H       1  ZINC000540473851    0.1400
     42 H42       -10.5938    0.0577   62.0965 H       1  ZINC000540473851    0.1300
     43 H43        -8.6889   -1.4792   61.8333 H       1  ZINC000540473851    0.1300
     44 H44       -11.0914   -4.0352   59.4004 H       1  ZINC000540473851    0.1300
     45 H45       -11.4079   -1.4943   58.1351 H       1  ZINC000540473851    0.1000
     46 H46       -12.0272   -2.8136   57.1123 H       1  ZINC000540473851    0.0400
     47 H47       -11.4401   -0.9339   55.6749 H       1  ZINC000540473851    0.1000
     48 H48       -12.4216    0.1769   56.6664 H       1  ZINC000540473851    0.0800
     49 H49        -6.0453   -0.8268   50.3450 H       1  ZINC000540473851    0.1800
     50 H50        -5.8367    1.6471   50.2243 H       1  ZINC000540473851    0.1600
     51 H51        -7.6689    3.0466   51.1530 H       1  ZINC000540473851    0.1800
@<TRIPOS>BOND
     1     1     2    1
     2     1    31    1
     3     1    32    1
     4     1    33    1
     5     2    30    1
     6     2     3    2
     7     3     4    1
     8     3    22    1
     9     4     5    2
    10     4     6   am
    11     6    21    1
    12     6     7    1
    13     7     8    1
    14     7    34    1
    15     7    35    1
    16     8     9    1
    17     8    36    1
    18     8    37    1
    19     9    10    1
    20     9    20    1
    21    10    11    1
    22    10    12    1
    23    10    13    1
    24    12    38    1
    25    12    39    1
    26    12    40    1
    27    13    19   ar
    28    13    14   ar
    29    14    15   ar
    30    14    41    1
    31    15    16   ar
    32    15    42    1
    33    16    17   ar
    34    16    43    1
    35    17    18    1
    36    17    19   ar
    37    19    44    1
    38    20    21    1
    39    20    45    1
    40    20    46    1
    41    21    47    1
    42    21    48    1
    43    22    23    1
    44    23    24    1
    45    23    30    2
    46    24    29   ar
    47    24    25   ar
    48    25    26   ar
    49    26    27   ar
    50    26    49    1
    51    27    28   ar
    52    27    50    1
    53    28    29   ar
    54    28    51    1
@<TRIPOS>SUBSTRUCTURE
     1 ZINC000540473851        1 TEMP              0 ****  ****    0 ROOT


##########                                Name:    ZINC000859202493
##########                DOCK_Rotatable_Bonds:                  11
##########                         Heavy_Atoms:                  25
##########                    Molecular_Weight:             382.404
##########                DOCK_Rotatable_Bonds:                  11
##########                       Formal_Charge:          -0.0200009
##########                     HBond_Acceptors:                  10
##########                        HBond_Donors:                   3
##########                         Heavy_Atoms:                  25
##########                          Grid_Score:          -32.800102
##########                     Grid_vdw_energy:          -30.794859
##########                      Grid_es_energy:           -2.005243
##########           Internal_energy_repulsive:           16.633303

@<TRIPOS>MOLECULE
ZINC000859202493
 46 46 1 0 0
SMALL
USER_CHARGES


@<TRIPOS>ATOM
      1 C1        -10.4882    3.1849   65.1721 C.3     1  ZINC000859202493   -0.1500
      2 C2        -11.3254    1.9768   64.7472 C.3     1  ZINC000859202493   -0.1200
      3 C3        -11.4113    1.9274   63.2204 C.3     1  ZINC000859202493   -0.1000
      4 H4        -10.4138    2.0432   62.7965 H       1  ZINC000859202493    0.0700
      5 C5        -12.3114    3.0603   62.7232 C.3     1  ZINC000859202493   -0.1600
      6 C6        -11.9971    0.5825   62.7858 C.3     1  ZINC000859202493   -0.1200
      7 C7        -10.8868   -0.2918   62.1994 C.3     1  ZINC000859202493    0.1600
      8 H8        -11.3090   -1.2395   61.8652 H       1  ZINC000859202493    0.1000
      9 C9         -9.8262   -0.5555   63.2702 C.3     1  ZINC000859202493    0.0500
     10 O10        -8.9784   -1.6255   62.8476 O.3     1  ZINC000859202493   -0.5700
     11 N11       -10.2719    0.3971   61.0622 N.am    1  ZINC000859202493   -1.1000
     12 S12       -10.8233    0.1148   59.5264 S.o2    1  ZINC000859202493    2.6900
     13 O13       -12.2250    0.3468   59.5544 O.2     1  ZINC000859202493   -0.9500
     14 O14        -9.9393    0.8006   58.6503 O.2     1  ZINC000859202493   -0.9500
     15 C15       -10.6098   -1.6042   59.2033 C.ar    1  ZINC000859202493   -0.6600
     16 C16        -9.4623   -2.2489   59.6263 C.ar    1  ZINC000859202493   -0.0300
     17 C17        -9.2907   -3.5979   59.3743 C.ar    1  ZINC000859202493   -0.1100
     18 C18       -10.2660   -4.3053   58.6994 C.ar    1  ZINC000859202493   -0.0600
     19 C19       -11.4201   -3.6605   58.2735 C.ar    1  ZINC000859202493    0.1200
     20 N20       -12.4104   -4.3746   57.5898 N.am    1  ZINC000859202493   -0.6500
     21 C21       -12.5920   -4.1784   56.2688 C.2     1  ZINC000859202493    0.4800
     22 O22       -11.8970   -3.3831   55.6726 O.2     1  ZINC000859202493   -0.4500
     23 C23       -13.6585   -4.9475   55.5326 C.3     1  ZINC000859202493    0.4600
     24 F24       -14.8756   -4.2641   55.6273 F       1  ZINC000859202493   -0.1500
     25 F25       -13.2978   -5.0731   54.1867 F       1  ZINC000859202493   -0.1600
     26 F26       -13.7923   -6.2191   56.1001 F       1  ZINC000859202493   -0.1600
     27 C27       -11.5917   -2.3073   58.5327 C.ar    1  ZINC000859202493   -0.0300
     28 H28       -10.4270    3.2201   66.2597 H       1  ZINC000859202493    0.0500
     29 H29        -9.4852    3.0968   64.7545 H       1  ZINC000859202493    0.0500
     30 H30       -10.9558    4.0983   64.8047 H       1  ZINC000859202493    0.0600
     31 H31       -10.8577    1.0633   65.1145 H       1  ZINC000859202493    0.0600
     32 H32       -12.3283    2.0648   65.1648 H       1  ZINC000859202493    0.0600
     33 H33       -12.3726    3.0250   61.6355 H       1  ZINC000859202493    0.0500
     34 H34       -13.3089    2.9444   63.1472 H       1  ZINC000859202493    0.0600
     35 H35       -11.8941    4.0184   63.0328 H       1  ZINC000859202493    0.0600
     36 H36       -12.4365    0.0817   63.6485 H       1  ZINC000859202493    0.0800
     37 H37       -12.7661    0.7479   62.0311 H       1  ZINC000859202493    0.0800
     38 H38        -9.2289    0.3440   63.4193 H       1  ZINC000859202493    0.0600
     39 H39       -10.3144   -0.8268   64.2061 H       1  ZINC000859202493    0.0600
     40 H40        -8.3416   -1.9106   63.5170 H       1  ZINC000859202493    0.3800
     41 H41        -9.5419    1.0188   61.2087 H       1  ZINC000859202493    0.4200
     42 H42        -8.6981   -1.6980   60.1543 H       1  ZINC000859202493    0.1500
     43 H43        -8.3928   -4.0986   59.7054 H       1  ZINC000859202493    0.1400
     44 H44       -10.1311   -5.3586   58.5025 H       1  ZINC000859202493    0.1400
     45 H45       -12.9661   -5.0108   58.0666 H       1  ZINC000859202493    0.4200
     46 H46       -12.4880   -1.8031   58.2029 H       1  ZINC000859202493    0.1500
@<TRIPOS>BOND
     1     1     2    1
     2     1    28    1
     3     1    29    1
     4     1    30    1
     5     2     3    1
     6     2    31    1
     7     2    32    1
     8     3     4    1
     9     3     5    1
    10     3     6    1
    11     5    33    1
    12     5    34    1
    13     5    35    1
    14     6     7    1
    15     6    36    1
    16     6    37    1
    17     7     8    1
    18     7     9    1
    19     7    11    1
    20     9    10    1
    21     9    38    1
    22     9    39    1
    23    10    40    1
    24    11    12   am
    25    11    41    1
    26    12    13    2
    27    12    14    2
    28    12    15    1
    29    15    27   ar
    30    15    16   ar
    31    16    17   ar
    32    16    42    1
    33    17    18   ar
    34    17    43    1
    35    18    19   ar
    36    18    44    1
    37    19    20    1
    38    19    27   ar
    39    20    21   am
    40    20    45    1
    41    21    22    2
    42    21    23    1
    43    23    24    1
    44    23    25    1
    45    23    26    1
    46    27    46    1
@<TRIPOS>SUBSTRUCTURE
     1 ZINC000859202493        1 TEMP              0 ****  ****    0 ROOT


##########                                Name:    ZINC000438893617
##########                DOCK_Rotatable_Bonds:                   5
##########                         Heavy_Atoms:                  29
##########                    Molecular_Weight:             412.596
##########                DOCK_Rotatable_Bonds:                   5
##########                       Formal_Charge:           0.0600001
##########                     HBond_Acceptors:                   5
##########                        HBond_Donors:                   0
##########                         Heavy_Atoms:                  29
##########                          Grid_Score:          -32.758644
##########                     Grid_vdw_energy:          -32.834621
##########                      Grid_es_energy:            0.075979
##########           Internal_energy_repulsive:          168.543823

@<TRIPOS>MOLECULE
ZINC000438893617
 61 66 1 0 0
SMALL
USER_CHARGES


@<TRIPOS>ATOM
      1 C1        -14.5856   -0.1516   63.1564 C.3     1  ZINC000438893617   -0.1000
      2 C2        -13.9245    1.1477   62.7749 C.2     1  ZINC000438893617   -0.0900
      3 C3        -12.5996    1.3018   62.7616 C.2     1  ZINC000438893617   -0.1600
      4 C4        -11.5971    0.2333   63.1144 C.3     1  ZINC000438893617   -0.0400
      5 H5        -12.0171   -0.6998   63.4896 H       1  ZINC000438893617    0.1400
      6 C6        -10.2550    0.6869   63.6923 C.3     1  ZINC000438893617   -0.1400
      7 C7        -10.3293    0.1453   62.2626 C.3     1  ZINC000438893617   -0.1800
      8 H8        -10.2199    0.8603   61.4473 H       1  ZINC000438893617    0.1300
      9 C9         -9.7558   -1.2247   62.0069 C.2     1  ZINC000438893617    0.5500
     10 O10        -8.7496   -1.5784   62.5842 O.2     1  ZINC000438893617   -0.5300
     11 N11       -10.3614   -2.0570   61.1366 N.am    1  ZINC000438893617   -0.6100
     12 C12       -11.5787   -1.6403   60.4267 C.3     1  ZINC000438893617    0.0900
     13 C13       -11.3435   -1.7934   58.9189 C.3     1  ZINC000438893617    0.1000
     14 N14       -10.7977   -3.1337   58.6625 N.am    1  ZINC000438893617   -0.6100
     15 C15       -11.4027   -3.9656   57.7916 C.2     1  ZINC000438893617    0.5300
     16 O16       -10.9429   -5.0693   57.5881 O.2     1  ZINC000438893617   -0.5300
     17 C17       -12.6503   -3.5242   57.0706 C.3     1  ZINC000438893617   -0.0700
     18 C18       -13.0970   -4.6235   56.1047 C.3     1  ZINC000438893617   -0.1100
     19 C19       -14.3636   -4.1754   55.3728 C.3     1  ZINC000438893617   -0.0800
     20 C20       -14.0732   -2.8942   54.5884 C.3     1  ZINC000438893617   -0.1100
     21 C21       -13.6265   -1.7951   55.5543 C.3     1  ZINC000438893617   -0.0800
     22 C22       -14.7368   -1.5288   56.5727 C.3     1  ZINC000438893617   -0.1100
     23 C23       -15.0273   -2.8099   57.3571 C.3     1  ZINC000438893617   -0.0900
     24 C24       -15.4740   -3.9092   56.3912 C.3     1  ZINC000438893617   -0.1100
     25 C25       -13.7606   -3.2581   58.0890 C.3     1  ZINC000438893617   -0.0900
     26 C26       -12.3598   -2.2431   56.2862 C.3     1  ZINC000438893617   -0.1200
     27 C27        -9.5803   -3.5505   59.3725 C.3     1  ZINC000438893617    0.0700
     28 C28        -9.8124   -3.3951   60.8761 C.3     1  ZINC000438893617    0.1000
     29 S29       -12.2015    2.9426   62.2689 S.3     1  ZINC000438893617    0.1000
     30 C30       -13.9072    3.3388   62.1036 C.2     1  ZINC000438893617   -0.2100
     31 C31       -14.6459    2.2702   62.4062 C.2     1  ZINC000438893617   -0.1300
     32 H32       -14.7156   -0.7680   62.2668 H       1  ZINC000438893617    0.0700
     33 H33       -13.9604   -0.6799   63.8761 H       1  ZINC000438893617    0.0700
     34 H34       -15.5591    0.0531   63.6019 H       1  ZINC000438893617    0.0700
     35 H35       -10.0972    1.7581   63.8175 H       1  ZINC000438893617    0.1100
     36 H36        -9.7919    0.0518   64.4476 H       1  ZINC000438893617    0.1100
     37 H37       -12.4142   -2.2700   60.7324 H       1  ZINC000438893617    0.0800
     38 H38       -11.7989   -0.5982   60.6585 H       1  ZINC000438893617    0.1000
     39 H39       -12.2878   -1.6752   58.3875 H       1  ZINC000438893617    0.1100
     40 H40       -10.6336   -1.0386   58.5809 H       1  ZINC000438893617    0.0700
     41 H41       -12.3060   -4.8131   55.3791 H       1  ZINC000438893617    0.0800
     42 H42       -13.3039   -5.5362   56.6635 H       1  ZINC000438893617    0.0700
     43 H43       -14.6819   -4.9585   54.6846 H       1  ZINC000438893617    0.0800
     44 H44       -13.2821   -3.0838   53.8628 H       1  ZINC000438893617    0.0600
     45 H45       -14.9755   -2.5750   54.0669 H       1  ZINC000438893617    0.0700
     46 H46       -13.4196   -0.8824   54.9955 H       1  ZINC000438893617    0.0800
     47 H47       -14.4186   -0.7457   57.2609 H       1  ZINC000438893617    0.0600
     48 H48       -15.6391   -1.2096   56.0513 H       1  ZINC000438893617    0.0700
     49 H49       -15.8183   -2.6203   58.0827 H       1  ZINC000438893617    0.0700
     50 H50       -16.3764   -3.5900   55.8697 H       1  ZINC000438893617    0.0700
     51 H51       -15.6810   -4.8219   56.9500 H       1  ZINC000438893617    0.0600
     52 H52       -13.9675   -4.1708   58.6479 H       1  ZINC000438893617    0.0700
     53 H53       -13.4423   -2.4750   58.7772 H       1  ZINC000438893617    0.0700
     54 H54       -12.0416   -1.4600   56.9744 H       1  ZINC000438893617    0.0700
     55 H55       -11.5688   -2.4327   55.5608 H       1  ZINC000438893617    0.0800
     56 H56        -9.3602   -4.5924   59.1406 H       1  ZINC000438893617    0.1300
     57 H57        -8.7448   -2.9207   59.0667 H       1  ZINC000438893617    0.0800
     58 H58        -8.8674   -3.5137   61.4062 H       1  ZINC000438893617    0.1100
     59 H59       -10.5227   -4.1487   61.2164 H       1  ZINC000438893617    0.0700
     60 H60       -14.2966    4.2991   61.7994 H       1  ZINC000438893617    0.1700
     61 H61       -15.7254    2.2820   62.3737 H       1  ZINC000438893617    0.1400
@<TRIPOS>BOND
     1     1     2    1
     2     1    32    1
     3     1    33    1
     4     1    34    1
     5     2    31    1
     6     2     3    2
     7     3     4    1
     8     3    29    1
     9     4     5    1
    10     4     7    1
    11     4     6    1
    12     6     7    1
    13     6    35    1
    14     6    36    1
    15     7     8    1
    16     7     9    1
    17     9    10    2
    18     9    11   am
    19    11    28    1
    20    11    12    1
    21    12    13    1
    22    12    37    1
    23    12    38    1
    24    13    14    1
    25    13    39    1
    26    13    40    1
    27    14    15   am
    28    14    27    1
    29    15    16    2
    30    15    17    1
    31    17    25    1
    32    17    26    1
    33    17    18    1
    34    18    19    1
    35    18    41    1
    36    18    42    1
    37    19    24    1
    38    19    20    1
    39    19    43    1
    40    20    21    1
    41    20    44    1
    42    20    45    1
    43    21    22    1
    44    21    26    1
    45    21    46    1
    46    22    23    1
    47    22    47    1
    48    22    48    1
    49    23    24    1
    50    23    25    1
    51    23    49    1
    52    24    50    1
    53    24    51    1
    54    25    52    1
    55    25    53    1
    56    26    54    1
    57    26    55    1
    58    27    28    1
    59    27    56    1
    60    27    57    1
    61    28    58    1
    62    28    59    1
    63    29    30    1
    64    30    31    2
    65    30    60    1
    66    31    61    1
@<TRIPOS>SUBSTRUCTURE
     1 ZINC000438893617        1 TEMP              0 ****  ****    0 ROOT


##########                                Name:    ZINC000558052810
##########                DOCK_Rotatable_Bonds:                   9
##########                         Heavy_Atoms:                  30
##########                    Molecular_Weight:             424.524
##########                DOCK_Rotatable_Bonds:                   9
##########                       Formal_Charge:          -0.0200002
##########                     HBond_Acceptors:                   8
##########                        HBond_Donors:                   1
##########                         Heavy_Atoms:                  30
##########                          Grid_Score:          -32.757030
##########                     Grid_vdw_energy:          -30.820118
##########                      Grid_es_energy:           -1.936911
##########           Internal_energy_repulsive:           25.161280

@<TRIPOS>MOLECULE
ZINC000558052810
 54 56 1 0 0
SMALL
USER_CHARGES


@<TRIPOS>ATOM
      1 C1        -11.2298    3.4584   65.5609 C.3     1  ZINC000558052810   -0.1700
      2 C2        -10.9570    2.0118   65.9780 C.3     1  ZINC000558052810    0.1100
      3 N3        -10.4397    1.2621   64.8305 N.am    1  ZINC000558052810   -0.6100
      4 C4         -8.9968    1.2046   64.5834 C.3     1  ZINC000558052810    0.0700
      5 C5        -11.2912    0.6253   64.0024 C.2     1  ZINC000558052810    0.5600
      6 O6        -12.4883    0.6728   64.2075 O.2     1  ZINC000558052810   -0.5300
      7 C7        -10.7690   -0.1314   62.8443 C.ar    1  ZINC000558052810   -0.1100
      8 C8         -9.8066   -1.1245   63.0330 C.ar    1  ZINC000558052810   -0.1100
      9 C9         -9.3208   -1.8293   61.9502 C.ar    1  ZINC000558052810   -0.1000
     10 C10        -9.7836   -1.5551   60.6772 C.ar    1  ZINC000558052810   -0.1300
     11 C11       -10.7416   -0.5677   60.4786 C.ar    1  ZINC000558052810    0.1400
     12 N12       -11.2065   -0.2937   59.1880 N.am    1  ZINC000558052810   -0.6600
     13 C13       -10.3309   -0.0264   58.1989 C.2     1  ZINC000558052810    0.5600
     14 O14        -9.1365   -0.0235   58.4284 O.2     1  ZINC000558052810   -0.4800
     15 C15       -10.8206    0.2623   56.8394 C.ar    1  ZINC000558052810   -0.1900
     16 C16       -10.3504    1.3758   56.1339 C.ar    1  ZINC000558052810   -0.0200
     17 C17       -10.8417    1.6028   54.8605 C.ar    1  ZINC000558052810   -0.1900
     18 C18       -11.7744    0.7328   54.3243 C.ar    1  ZINC000558052810    0.1500
     19 N19       -12.2060   -0.3110   55.0044 N.ar    1  ZINC000558052810   -0.4900
     20 C20       -11.7649   -0.5794   56.2245 C.ar    1  ZINC000558052810    0.1600
     21 S21       -12.3766   -1.9885   57.0876 S.3     1  ZINC000558052810    0.0600
     22 C22       -13.8535   -2.3433   56.1032 C.3     1  ZINC000558052810   -0.0700
     23 C23       -13.9371   -3.8245   55.8387 C.2     1  ZINC000558052810   -0.2000
     24 C24       -14.5730   -4.7683   56.5732 C.2     1  ZINC000558052810   -0.0100
     25 C25       -15.3537   -4.5487   57.8433 C.3     1  ZINC000558052810   -0.0800
     26 O26       -14.3708   -5.9363   55.9473 O.3     1  ZINC000558052810    0.1000
     27 N27       -13.7033   -5.7958   54.9488 N.2     1  ZINC000558052810   -0.3600
     28 C28       -13.3754   -4.5498   54.7630 C.2     1  ZINC000558052810    0.0300
     29 C29       -12.5518   -3.9923   53.6307 C.3     1  ZINC000558052810   -0.0800
     30 C30       -11.2408    0.1411   61.5601 C.ar    1  ZINC000558052810   -0.0700
     31 H31       -10.3039    3.9175   65.2146 H       1  ZINC000558052810    0.0600
     32 H32       -11.9653    3.4721   64.7566 H       1  ZINC000558052810    0.0600
     33 H33       -11.6147    4.0161   66.4147 H       1  ZINC000558052810    0.0700
     34 H34       -10.2216    1.9981   66.7824 H       1  ZINC000558052810    0.0800
     35 H35       -11.8830    1.5527   66.3244 H       1  ZINC000558052810    0.0800
     36 H36        -8.5596    0.3970   65.1704 H       1  ZINC000558052810    0.0600
     37 H37        -8.8167    1.0226   63.5239 H       1  ZINC000558052810    0.0800
     38 H38        -8.5407    2.1516   64.8720 H       1  ZINC000558052810    0.0700
     39 H39        -9.4418   -1.3412   64.0261 H       1  ZINC000558052810    0.1400
     40 H40        -8.5760   -2.5973   62.0984 H       1  ZINC000558052810    0.1400
     41 H41        -9.3994   -2.1097   59.8338 H       1  ZINC000558052810    0.1300
     42 H42       -12.1591   -0.2959   59.0050 H       1  ZINC000558052810    0.4100
     43 H43        -9.6222    2.0417   56.5729 H       1  ZINC000558052810    0.1400
     44 H44       -10.4999    2.4533   54.2893 H       1  ZINC000558052810    0.1500
     45 H45       -12.1563    0.9123   53.3301 H       1  ZINC000558052810    0.1700
     46 H46       -14.7401   -2.0211   56.6493 H       1  ZINC000558052810    0.1000
     47 H47       -13.7959   -1.8077   55.1555 H       1  ZINC000558052810    0.1000
     48 H48       -16.3968   -4.3485   57.5986 H       1  ZINC000558052810    0.0900
     49 H49       -15.2915   -5.4405   58.4668 H       1  ZINC000558052810    0.0900
     50 H50       -14.9375   -3.6981   58.3832 H       1  ZINC000558052810    0.0900
     51 H51       -13.2084   -3.7156   52.8057 H       1  ZINC000558052810    0.0800
     52 H52       -12.0099   -3.1115   53.9750 H       1  ZINC000558052810    0.0800
     53 H53       -11.8414   -4.7467   53.2923 H       1  ZINC000558052810    0.0800
     54 H54       -11.9854    0.9086   61.4080 H       1  ZINC000558052810    0.1500
@<TRIPOS>BOND
     1     1     2    1
     2     1    31    1
     3     1    32    1
     4     1    33    1
     5     2     3    1
     6     2    34    1
     7     2    35    1
     8     3     4    1
     9     3     5   am
    10     4    36    1
    11     4    37    1
    12     4    38    1
    13     5     6    2
    14     5     7    1
    15     7    30   ar
    16     7     8   ar
    17     8     9   ar
    18     8    39    1
    19     9    10   ar
    20     9    40    1
    21    10    11   ar
    22    10    41    1
    23    11    12    1
    24    11    30   ar
    25    12    13   am
    26    12    42    1
    27    13    14    2
    28    13    15    1
    29    15    20   ar
    30    15    16   ar
    31    16    17   ar
    32    16    43    1
    33    17    18   ar
    34    17    44    1
    35    18    19   ar
    36    18    45    1
    37    19    20   ar
    38    20    21    1
    39    21    22    1
    40    22    23    1
    41    22    46    1
    42    22    47    1
    43    23    28    1
    44    23    24    2
    45    24    25    1
    46    24    26    1
    47    25    48    1
    48    25    49    1
    49    25    50    1
    50    26    27    1
    51    27    28    2
    52    28    29    1
    53    29    51    1
    54    29    52    1
    55    29    53    1
    56    30    54    1
@<TRIPOS>SUBSTRUCTURE
     1 ZINC000558052810        1 TEMP              0 ****  ****    0 ROOT


##########                                Name:    ZINC000894043060
##########                DOCK_Rotatable_Bonds:                  11
##########                         Heavy_Atoms:                  26
##########                    Molecular_Weight:             396.812
##########                DOCK_Rotatable_Bonds:                  11
##########                       Formal_Charge:          -0.0199999
##########                     HBond_Acceptors:                   9
##########                        HBond_Donors:                   2
##########                         Heavy_Atoms:                  26
##########                          Grid_Score:          -32.754887
##########                     Grid_vdw_energy:          -32.047451
##########                      Grid_es_energy:           -0.707434
##########           Internal_energy_repulsive:           13.608525

@<TRIPOS>MOLECULE
ZINC000894043060
 47 47 1 0 0
SMALL
USER_CHARGES


@<TRIPOS>ATOM
      1 C1        -10.7204    2.6805   58.2372 C.3     1  ZINC000894043060   -0.1700
      2 C2         -9.6238    1.9911   57.4228 C.3     1  ZINC000894043060    0.1000
      3 H3         -9.9917    1.7874   56.4172 H       1  ZINC000894043060    0.1100
      4 N4         -9.2527    0.7310   58.0715 N.am    1  ZINC000894043060   -0.7300
      5 C5         -9.9587   -0.3893   57.8210 C.2     1  ZINC000894043060    0.5200
      6 O6        -10.9022   -0.3541   57.0597 O.2     1  ZINC000894043060   -0.5200
      7 C7         -9.5758   -1.6858   58.4870 C.3     1  ZINC000894043060   -0.1400
      8 C8        -10.6914   -2.1182   59.4407 C.3     1  ZINC000894043060   -0.0200
      9 C9        -10.5855   -3.6222   59.7009 C.3     1  ZINC000894043060   -0.1400
     10 C10       -11.1746   -4.3761   58.5366 C.2     1  ZINC000894043060    0.5200
     11 O11       -10.5524   -5.2819   58.0235 O.2     1  ZINC000894043060   -0.5200
     12 N12       -12.3928   -4.0437   58.0655 N.am    1  ZINC000894043060   -0.7300
     13 C13       -12.9662   -4.7777   56.9347 C.3     1  ZINC000894043060    0.1000
     14 H14       -12.5721   -5.7939   56.9238 H       1  ZINC000894043060    0.1200
     15 C15       -14.4890   -4.8228   57.0754 C.3     1  ZINC000894043060   -0.1700
     16 C16       -12.5954   -4.0728   55.6284 C.3     1  ZINC000894043060    0.2600
     17 F17       -11.2033   -3.9749   55.5302 F       1  ZINC000894043060   -0.1900
     18 F18       -13.0887   -4.8081   54.5454 F       1  ZINC000894043060   -0.2000
     19 C19       -10.5560   -1.3722   60.7431 C.ar    1  ZINC000894043060   -0.0600
     20 C20        -9.5511   -1.7088   61.6308 C.ar    1  ZINC000894043060   -0.1200
     21 C21        -9.4264   -1.0250   62.8255 C.ar    1  ZINC000894043060   -0.1200
     22 C22       -10.3077   -0.0036   63.1329 C.ar    1  ZINC000894043060   -0.0400
     23 Cl23      -10.1514    0.8559   64.6330 Cl      1  ZINC000894043060   -0.0800
     24 C24       -11.3132    0.3327   62.2440 C.ar    1  ZINC000894043060   -0.1100
     25 C25       -11.4333   -0.3481   61.0472 C.ar    1  ZINC000894043060   -0.0400
     26 C26        -8.3983    2.9036   57.3424 C.3     1  ZINC000894043060    0.2600
     27 F27        -7.3545    2.2272   56.7021 F       1  ZINC000894043060   -0.2000
     28 F28        -8.7216    4.0557   56.6176 F       1  ZINC000894043060   -0.1900
     29 H29       -10.3525    2.8841   59.2428 H       1  ZINC000894043060    0.0600
     30 H30       -10.9965    3.6178   57.7545 H       1  ZINC000894043060    0.0800
     31 H31       -11.5935    2.0303   58.2944 H       1  ZINC000894043060    0.0800
     32 H32        -8.4989    0.7032   58.6813 H       1  ZINC000894043060    0.4000
     33 H33        -9.4284   -2.4543   57.7283 H       1  ZINC000894043060    0.1000
     34 H34        -8.6517   -1.5471   59.0481 H       1  ZINC000894043060    0.1000
     35 H35       -11.6595   -1.8942   58.9927 H       1  ZINC000894043060    0.1000
     36 H36        -9.5375   -3.8976   59.8193 H       1  ZINC000894043060    0.1000
     37 H37       -11.1319   -3.8729   60.6101 H       1  ZINC000894043060    0.1000
     38 H38       -12.8899   -3.3184   58.4751 H       1  ZINC000894043060    0.4000
     39 H39       -14.8831   -3.8065   57.0864 H       1  ZINC000894043060    0.0700
     40 H40       -14.9157   -5.3689   56.2341 H       1  ZINC000894043060    0.0800
     41 H41       -14.7533   -5.3250   58.0061 H       1  ZINC000894043060    0.0700
     42 H42       -13.0314   -3.0739   55.6181 H       1  ZINC000894043060    0.1200
     43 H43        -8.8636   -2.5063   61.3909 H       1  ZINC000894043060    0.1200
     44 H44        -8.6416   -1.2883   63.5191 H       1  ZINC000894043060    0.1300
     45 H45       -12.0015    1.1296   62.4836 H       1  ZINC000894043060    0.1300
     46 H46       -12.2180   -0.0854   60.3531 H       1  ZINC000894043060    0.1300
     47 H47        -8.0868    3.1830   58.3488 H       1  ZINC000894043060    0.1100
@<TRIPOS>BOND
     1     1     2    1
     2     1    29    1
     3     1    30    1
     4     1    31    1
     5     2     3    1
     6     2     4    1
     7     2    26    1
     8     4     5   am
     9     4    32    1
    10     5     6    2
    11     5     7    1
    12     7     8    1
    13     7    33    1
    14     7    34    1
    15     8     9    1
    16     8    19    1
    17     8    35    1
    18     9    10    1
    19     9    36    1
    20     9    37    1
    21    10    11    2
    22    10    12   am
    23    12    13    1
    24    12    38    1
    25    13    14    1
    26    13    15    1
    27    13    16    1
    28    15    39    1
    29    15    40    1
    30    15    41    1
    31    16    17    1
    32    16    18    1
    33    16    42    1
    34    19    25   ar
    35    19    20   ar
    36    20    21   ar
    37    20    43    1
    38    21    22   ar
    39    21    44    1
    40    22    23    1
    41    22    24   ar
    42    24    25   ar
    43    24    45    1
    44    25    46    1
    45    26    27    1
    46    26    28    1
    47    26    47    1
@<TRIPOS>SUBSTRUCTURE
     1 ZINC000894043060        1 TEMP              0 ****  ****    0 ROOT


##########                                Name:    ZINC000970996691
##########                DOCK_Rotatable_Bonds:                   7
##########                         Heavy_Atoms:                  24
##########                    Molecular_Weight:             334.462
##########                DOCK_Rotatable_Bonds:                   7
##########                       Formal_Charge:          -0.0199999
##########                     HBond_Acceptors:                   6
##########                        HBond_Donors:                   0
##########                         Heavy_Atoms:                  24
##########                          Grid_Score:          -32.749218
##########                     Grid_vdw_energy:          -31.359123
##########                      Grid_es_energy:           -1.390093
##########           Internal_energy_repulsive:           10.939630

@<TRIPOS>MOLECULE
ZINC000970996691
 54 56 1 0 0
SMALL
USER_CHARGES


@<TRIPOS>ATOM
      1 C1         -7.7580    1.4079   65.8064 C.3     1  ZINC000970996691   -0.1500
      2 C2         -9.1187    2.1007   65.9018 C.3     1  ZINC000970996691   -0.1200
      3 C3        -10.2193    1.1227   65.4853 C.3     1  ZINC000970996691   -0.0300
      4 C4        -10.6552    1.4280   64.0754 C.2     1  ZINC000970996691    0.1800
      5 N5        -10.2473    0.8260   62.9842 N.2     1  ZINC000970996691   -0.4700
      6 C6        -10.9000    1.4272   61.9735 C.2     1  ZINC000970996691    0.1800
      7 C7        -10.7760    1.0949   60.5088 C.3     1  ZINC000970996691    0.1500
      8 N8        -11.7074    0.0100   60.1724 N.3     1  ZINC000970996691   -0.5200
      9 C9        -12.8884    0.5290   59.4696 C.3     1  ZINC000970996691    0.0200
     10 C10       -11.0389   -1.0311   59.3803 C.3     1  ZINC000970996691    0.0700
     11 H11       -10.4405   -0.5891   58.5837 H       1  ZINC000970996691    0.0600
     12 C12       -10.1721   -1.9469   60.2842 C.3     1  ZINC000970996691   -0.1300
     13 C13       -10.1355   -3.2742   59.4977 C.3     1  ZINC000970996691    0.1000
     14 N14       -11.2995   -3.2816   58.5997 N.am    1  ZINC000970996691   -0.6200
     15 C15       -11.6143   -4.2617   57.7297 C.2     1  ZINC000970996691    0.5300
     16 O16       -10.9084   -5.2440   57.6413 O.2     1  ZINC000970996691   -0.5300
     17 C17       -12.8434   -4.1369   56.8667 C.3     1  ZINC000970996691   -0.1000
     18 C18       -12.4481   -3.5957   55.4914 C.3     1  ZINC000970996691   -0.1100
     19 C19       -13.6961   -3.4690   54.6152 C.3     1  ZINC000970996691   -0.1200
     20 C20       -14.3477   -4.8438   54.4541 C.3     1  ZINC000970996691   -0.1200
     21 C21       -14.7430   -5.3853   55.8295 C.3     1  ZINC000970996691   -0.1200
     22 C22       -13.4951   -5.5119   56.7056 C.3     1  ZINC000970996691   -0.1000
     23 C23       -12.0665   -2.0395   58.8086 C.3     1  ZINC000970996691    0.1200
     24 N24       -11.6575    2.3470   62.4920 N.2     1  ZINC000970996691   -0.3800
     25 O25       -11.5360    2.3600   63.6988 O.3     1  ZINC000970996691    0.0800
     26 H26        -7.7439    0.5419   66.4680 H       1  ZINC000970996691    0.0600
     27 H27        -7.5866    1.0837   64.7798 H       1  ZINC000970996691    0.0600
     28 H28        -6.9740    2.1046   66.1031 H       1  ZINC000970996691    0.0600
     29 H29        -9.2902    2.4249   66.9283 H       1  ZINC000970996691    0.0700
     30 H30        -9.1328    2.9668   65.2402 H       1  ZINC000970996691    0.0700
     31 H31        -9.8370    0.1032   65.5347 H       1  ZINC000970996691    0.1100
     32 H32       -11.0701    1.2249   66.1589 H       1  ZINC000970996691    0.1000
     33 H33       -11.0154    1.9768   59.9147 H       1  ZINC000970996691    0.0700
     34 H34        -9.7556    0.7777   60.2934 H       1  ZINC000970996691    0.1100
     35 H35       -12.5762    1.0200   58.5480 H       1  ZINC000970996691    0.0300
     36 H36       -13.5613   -0.2950   59.2324 H       1  ZINC000970996691    0.0800
     37 H37       -13.4041    1.2472   60.1073 H       1  ZINC000970996691    0.0700
     38 H38        -9.1680   -1.5381   60.3976 H       1  ZINC000970996691    0.0800
     39 H39       -10.6444   -2.0877   61.2565 H       1  ZINC000970996691    0.0900
     40 H40        -9.2168   -3.3341   58.9142 H       1  ZINC000970996691    0.0700
     41 H41       -10.1943   -4.1158   60.1878 H       1  ZINC000970996691    0.0700
     42 H42       -13.5497   -3.4530   57.3371 H       1  ZINC000970996691    0.0900
     43 H43       -11.9839   -2.6161   55.6062 H       1  ZINC000970996691    0.0700
     44 H44       -11.7418   -4.2796   55.0209 H       1  ZINC000970996691    0.0700
     45 H45       -14.4024   -2.7850   55.0856 H       1  ZINC000970996691    0.0600
     46 H46       -13.4144   -3.0833   53.6354 H       1  ZINC000970996691    0.0700
     47 H47       -15.2368   -4.7537   53.8299 H       1  ZINC000970996691    0.0600
     48 H48       -13.6413   -5.5279   53.9837 H       1  ZINC000970996691    0.0600
     49 H49       -15.4494   -4.7012   56.2999 H       1  ZINC000970996691    0.0600
     50 H50       -15.2073   -6.3647   55.7147 H       1  ZINC000970996691    0.0700
     51 H51       -12.7888   -6.1959   56.2352 H       1  ZINC000970996691    0.0800
     52 H52       -13.7767   -5.8975   57.6855 H       1  ZINC000970996691    0.0600
     53 H53       -12.8716   -2.2065   59.5241 H       1  ZINC000970996691    0.0800
     54 H54       -12.4681   -1.6779   57.8619 H       1  ZINC000970996691    0.0800
@<TRIPOS>BOND
     1     1     2    1
     2     1    26    1
     3     1    27    1
     4     1    28    1
     5     2     3    1
     6     2    29    1
     7     2    30    1
     8     3     4    1
     9     3    31    1
    10     3    32    1
    11     4    25    1
    12     4     5    2
    13     5     6    1
    14     6     7    1
    15     6    24    2
    16     7     8    1
    17     7    33    1
    18     7    34    1
    19     8     9    1
    20     8    10    1
    21     9    35    1
    22     9    36    1
    23     9    37    1
    24    10    11    1
    25    10    23    1
    26    10    12    1
    27    12    13    1
    28    12    38    1
    29    12    39    1
    30    13    14    1
    31    13    40    1
    32    13    41    1
    33    14    15   am
    34    14    23    1
    35    15    16    2
    36    15    17    1
    37    17    22    1
    38    17    18    1
    39    17    42    1
    40    18    19    1
    41    18    43    1
    42    18    44    1
    43    19    20    1
    44    19    45    1
    45    19    46    1
    46    20    21    1
    47    20    47    1
    48    20    48    1
    49    21    22    1
    50    21    49    1
    51    21    50    1
    52    22    51    1
    53    22    52    1
    54    23    53    1
    55    23    54    1
    56    24    25    1
@<TRIPOS>SUBSTRUCTURE
     1 ZINC000970996691        1 TEMP              0 ****  ****    0 ROOT


##########                                Name:    ZINC000077537368
##########                DOCK_Rotatable_Bonds:                   5
##########                         Heavy_Atoms:                  27
##########                    Molecular_Weight:             365.478
##########                DOCK_Rotatable_Bonds:                   5
##########                       Formal_Charge:          -0.0400007
##########                     HBond_Acceptors:                   6
##########                        HBond_Donors:                   0
##########                         Heavy_Atoms:                  27
##########                          Grid_Score:          -32.726738
##########                     Grid_vdw_energy:          -33.161659
##########                      Grid_es_energy:            0.434921
##########           Internal_energy_repulsive:           13.159274

@<TRIPOS>MOLECULE
ZINC000077537368
 54 56 1 0 0
SMALL
USER_CHARGES


@<TRIPOS>ATOM
      1 C1        -11.0381   -3.4980   52.5498 C.3     1  ZINC000077537368    0.0800
      2 N2        -12.4247   -3.0254   52.5680 N.pl3   1  ZINC000077537368   -0.2600
      3 N3        -12.9108   -2.1271   51.7891 N.2     1  ZINC000077537368   -0.2700
      4 C4        -14.1770   -1.9206   52.0470 C.2     1  ZINC000077537368    0.0400
      5 C5        -15.0786   -0.9424   51.3390 C.3     1  ZINC000077537368    0.0200
      6 C6        -16.4021   -1.6273   50.9924 C.3     1  ZINC000077537368   -0.1400
      7 C7        -15.3481    0.2556   52.2517 C.3     1  ZINC000077537368   -0.1400
      8 C8        -14.4010   -0.4622   50.0539 C.3     1  ZINC000077537368   -0.1400
      9 C9        -14.5448   -2.7681   53.0945 C.2     1  ZINC000077537368   -0.2000
     10 C10       -13.3992   -3.4771   53.4119 C.2     1  ZINC000077537368   -0.0400
     11 C11       -13.2572   -4.5048   54.4555 C.2     1  ZINC000077537368    0.5900
     12 O12       -13.3616   -5.6820   54.1679 O.2     1  ZINC000077537368   -0.5400
     13 N13       -13.0117   -4.1416   55.7300 N.am    1  ZINC000077537368   -0.6000
     14 C14       -12.8603   -5.1527   56.7873 C.3     1  ZINC000077537368    0.0800
     15 C15       -11.5598   -4.8712   57.5474 C.3     1  ZINC000077537368    0.0400
     16 N16       -11.5614   -3.4787   58.0153 N.3     1  ZINC000077537368   -0.5300
     17 C17       -10.4134   -3.2172   58.8936 C.3     1  ZINC000077537368    0.0900
     18 C18       -10.8533   -2.3623   60.0541 C.ar    1  ZINC000077537368   -0.0500
     19 C19       -12.2013   -2.2182   60.3313 C.ar    1  ZINC000077537368   -0.1200
     20 C20       -12.6109   -1.4370   61.3919 C.ar    1  ZINC000077537368   -0.0700
     21 C21       -11.6617   -0.7911   62.1866 C.ar    1  ZINC000077537368   -0.0300
     22 C22       -12.0797    0.0211   63.2894 C.1     1  ZINC000077537368    0.2500
     23 N23       -12.4113    0.6655   64.1642 N.1     1  ZINC000077537368   -0.4100
     24 C24       -10.3030   -0.9412   61.9015 C.ar    1  ZINC000077537368   -0.0700
     25 C25        -9.9072   -1.7298   60.8411 C.ar    1  ZINC000077537368   -0.1000
     26 C26       -11.5865   -2.5377   56.8874 C.3     1  ZINC000077537368    0.0400
     27 C27       -12.8820   -2.7238   56.0992 C.3     1  ZINC000077537368    0.1200
     28 H28       -10.9698   -4.4005   51.9424 H       1  ZINC000077537368    0.0800
     29 H29       -10.3965   -2.7255   52.1259 H       1  ZINC000077537368    0.1000
     30 H30       -10.7164   -3.7196   53.5673 H       1  ZINC000077537368    0.1100
     31 H31       -16.8848   -1.9694   51.9079 H       1  ZINC000077537368    0.0600
     32 H32       -17.0542   -0.9197   50.4803 H       1  ZINC000077537368    0.0600
     33 H33       -16.2101   -2.4807   50.3421 H       1  ZINC000077537368    0.0600
     34 H34       -14.4052    0.7436   52.4987 H       1  ZINC000077537368    0.0600
     35 H35       -16.0002    0.9632   51.7397 H       1  ZINC000077537368    0.0600
     36 H36       -15.8307   -0.0865   53.1673 H       1  ZINC000077537368    0.0600
     37 H37       -14.2091   -1.3156   49.4037 H       1  ZINC000077537368    0.0600
     38 H38       -15.0532    0.2454   49.5419 H       1  ZINC000077537368    0.0600
     39 H39       -13.4582    0.0259   50.3009 H       1  ZINC000077537368    0.0600
     40 H40       -15.5173   -2.8546   53.5562 H       1  ZINC000077537368    0.1700
     41 H41       -13.7053   -5.0945   57.4734 H       1  ZINC000077537368    0.0800
     42 H42       -12.8156   -6.1459   56.3405 H       1  ZINC000077537368    0.1200
     43 H43       -11.4861   -5.5423   58.4031 H       1  ZINC000077537368    0.0900
     44 H44       -10.7093   -5.0313   56.8847 H       1  ZINC000077537368    0.0400
     45 H45       -10.0192   -4.1621   59.2674 H       1  ZINC000077537368    0.0900
     46 H46        -9.6376   -2.6964   58.3323 H       1  ZINC000077537368    0.0500
     47 H47       -12.9344   -2.7183   59.7158 H       1  ZINC000077537368    0.1300
     48 H48       -13.6633   -1.3247   61.6067 H       1  ZINC000077537368    0.1300
     49 H49        -9.5637   -0.4445   62.5122 H       1  ZINC000077537368    0.1300
     50 H50        -8.8567   -1.8471   60.6196 H       1  ZINC000077537368    0.1400
     51 H51       -11.5322   -1.5165   57.2646 H       1  ZINC000077537368    0.1000
     52 H52       -10.7356   -2.7303   56.2341 H       1  ZINC000077537368    0.0400
     53 H53       -12.8540   -2.1104   55.1987 H       1  ZINC000077537368    0.1000
     54 H54       -13.7316   -2.4334   56.7172 H       1  ZINC000077537368    0.0800
@<TRIPOS>BOND
     1     1     2    1
     2     1    28    1
     3     1    29    1
     4     1    30    1
     5     2    10    1
     6     2     3    1
     7     3     4    2
     8     4     5    1
     9     4     9    1
    10     5     6    1
    11     5     7    1
    12     5     8    1
    13     6    31    1
    14     6    32    1
    15     6    33    1
    16     7    34    1
    17     7    35    1
    18     7    36    1
    19     8    37    1
    20     8    38    1
    21     8    39    1
    22     9    10    2
    23     9    40    1
    24    10    11    1
    25    11    12    2
    26    11    13   am
    27    13    27    1
    28    13    14    1
    29    14    15    1
    30    14    41    1
    31    14    42    1
    32    15    16    1
    33    15    43    1
    34    15    44    1
    35    16    17    1
    36    16    26    1
    37    17    18    1
    38    17    45    1
    39    17    46    1
    40    18    25   ar
    41    18    19   ar
    42    19    20   ar
    43    19    47    1
    44    20    21   ar
    45    20    48    1
    46    21    22    1
    47    21    24   ar
    48    22    23    3
    49    24    25   ar
    50    24    49    1
    51    25    50    1
    52    26    27    1
    53    26    51    1
    54    26    52    1
    55    27    53    1
    56    27    54    1
@<TRIPOS>SUBSTRUCTURE
     1 ZINC000077537368        1 TEMP              0 ****  ****    0 ROOT


##########                                Name:    ZINC001082278299
##########                DOCK_Rotatable_Bonds:                   9
##########                         Heavy_Atoms:                  25
##########                    Molecular_Weight:              346.47
##########                DOCK_Rotatable_Bonds:                   9
##########                       Formal_Charge:           0.0200001
##########                     HBond_Acceptors:                   5
##########                        HBond_Donors:                   1
##########                         Heavy_Atoms:                  25
##########                          Grid_Score:          -32.726009
##########                     Grid_vdw_energy:          -31.114058
##########                      Grid_es_energy:           -1.611953
##########           Internal_energy_repulsive:           87.546616

@<TRIPOS>MOLECULE
ZINC001082278299
 55 57 1 0 0
SMALL
USER_CHARGES


@<TRIPOS>ATOM
      1 C1         -9.6455   -0.3728   63.9445 C.3     1  ZINC001082278299   -0.1300
      2 C2        -10.0397   -0.5241   62.4979 C.2     1  ZINC001082278299    0.0000
      3 C3         -9.4337   -1.4291   61.7346 C.2     1  ZINC001082278299   -0.2300
      4 C4         -9.8185   -1.5769   60.3226 C.2     1  ZINC001082278299    0.5400
      5 O5        -10.2190   -2.6487   59.9105 O.2     1  ZINC001082278299   -0.5300
      6 N6         -9.7274   -0.5245   59.4855 N.am    1  ZINC001082278299   -0.7400
      7 C7        -10.1090   -0.6723   58.0788 C.3     1  ZINC001082278299    0.1300
      8 C8         -9.4539    0.4371   57.2536 C.3     1  ZINC001082278299    0.1400
      9 H9         -8.3743    0.2885   57.2333 H       1  ZINC001082278299    0.0800
     10 C10        -9.7733    1.7988   57.8785 C.3     1  ZINC001082278299   -0.1300
     11 C11        -9.2346    2.9097   56.9741 C.3     1  ZINC001082278299   -0.1200
     12 C12        -9.9182    2.8334   55.6071 C.3     1  ZINC001082278299   -0.1400
     13 C13        -9.6004    1.4834   54.9563 C.3     1  ZINC001082278299    0.1100
     14 N14        -9.9810    0.4076   55.8824 N.am    1  ZINC001082278299   -0.6100
     15 C15       -10.8017   -0.5840   55.4829 C.2     1  ZINC001082278299    0.5100
     16 O16       -11.1083   -1.4662   56.2566 O.2     1  ZINC001082278299   -0.5100
     17 C17       -11.3384   -0.5967   54.0748 C.3     1  ZINC001082278299   -0.1100
     18 C18       -11.9991   -1.9231   53.8009 C.2     1  ZINC001082278299   -0.0900
     19 C19       -13.1126   -2.2043   54.4099 C.2     1  ZINC001082278299   -0.1800
     20 C20       -13.8445   -3.5014   54.2129 C.3     1  ZINC001082278299    0.0900
     21 O21       -13.3589   -4.1678   53.0458 O.3     1  ZINC001082278299   -0.3800
     22 C22       -11.9302   -4.2744   53.0148 C.3     1  ZINC001082278299    0.0600
     23 C23       -11.3484   -2.8683   52.8291 C.3     1  ZINC001082278299   -0.1100
     24 C24       -11.1207    0.3500   61.9160 C.3     1  ZINC001082278299   -0.1200
     25 C25       -12.3023   -0.3454   61.2370 C.3     1  ZINC001082278299   -0.1900
     26 C26       -12.4902    0.3281   62.5979 C.3     1  ZINC001082278299   -0.1500
     27 H27        -8.8437    0.3610   64.0277 H       1  ZINC001082278299    0.0800
     28 H28       -10.5065   -0.0372   64.5226 H       1  ZINC001082278299    0.0800
     29 H29        -9.3011   -1.3326   64.3295 H       1  ZINC001082278299    0.0700
     30 H30        -8.6590   -2.0555   62.1516 H       1  ZINC001082278299    0.1300
     31 H31        -9.4091    0.3307   59.8145 H       1  ZINC001082278299    0.3900
     32 H32        -9.7756   -1.6430   57.7119 H       1  ZINC001082278299    0.0900
     33 H33       -11.1928   -0.6018   57.9870 H       1  ZINC001082278299    0.0800
     34 H34       -10.8529    1.9067   57.9835 H       1  ZINC001082278299    0.0700
     35 H35        -9.3032    1.8683   58.8594 H       1  ZINC001082278299    0.0800
     36 H36        -9.4389    3.8791   57.4286 H       1  ZINC001082278299    0.0700
     37 H37        -8.1587    2.7867   56.8494 H       1  ZINC001082278299    0.0700
     38 H38       -10.9964    2.9316   55.7334 H       1  ZINC001082278299    0.0700
     39 H39        -9.5512    3.6391   54.9713 H       1  ZINC001082278299    0.0800
     40 H40       -10.1637    1.3833   54.0285 H       1  ZINC001082278299    0.0900
     41 H41        -8.5327    1.4213   54.7464 H       1  ZINC001082278299    0.0700
     42 H42       -12.0684    0.2041   53.9570 H       1  ZINC001082278299    0.1000
     43 H43       -10.5186   -0.4472   53.3721 H       1  ZINC001082278299    0.1000
     44 H44       -13.5296   -1.4738   55.0872 H       1  ZINC001082278299    0.1100
     45 H45       -13.6904   -4.1390   55.0835 H       1  ZINC001082278299    0.0600
     46 H46       -14.9098   -3.3015   54.0980 H       1  ZINC001082278299    0.1000
     47 H47       -11.5736   -4.7027   53.9516 H       1  ZINC001082278299    0.0600
     48 H48       -11.6274   -4.9087   52.1818 H       1  ZINC001082278299    0.1000
     49 H49       -11.5309   -2.5319   51.8084 H       1  ZINC001082278299    0.0800
     50 H50       -10.2749   -2.8921   53.0165 H       1  ZINC001082278299    0.0800
     51 H51       -10.7834    1.2968   61.4943 H       1  ZINC001082278299    0.1300
     52 H52       -12.7427    0.1439   60.3683 H       1  ZINC001082278299    0.1000
     53 H53       -12.2978   -1.4351   61.2111 H       1  ZINC001082278299    0.1000
     54 H54       -12.6092   -0.3185   63.4673 H       1  ZINC001082278299    0.0900
     55 H55       -13.0541    1.2605   62.6244 H       1  ZINC001082278299    0.1000
@<TRIPOS>BOND
     1     1     2    1
     2     1    27    1
     3     1    28    1
     4     1    29    1
     5     2     3    2
     6     2    24    1
     7     3     4    1
     8     3    30    1
     9     4     5    2
    10     4     6   am
    11     6     7    1
    12     6    31    1
    13     7     8    1
    14     7    32    1
    15     7    33    1
    16     8     9    1
    17     8    14    1
    18     8    10    1
    19    10    11    1
    20    10    34    1
    21    10    35    1
    22    11    12    1
    23    11    36    1
    24    11    37    1
    25    12    13    1
    26    12    38    1
    27    12    39    1
    28    13    14    1
    29    13    40    1
    30    13    41    1
    31    14    15   am
    32    15    16    2
    33    15    17    1
    34    17    18    1
    35    17    42    1
    36    17    43    1
    37    18    23    1
    38    18    19    2
    39    19    20    1
    40    19    44    1
    41    20    21    1
    42    20    45    1
    43    20    46    1
    44    21    22    1
    45    22    23    1
    46    22    47    1
    47    22    48    1
    48    23    49    1
    49    23    50    1
    50    24    26    1
    51    24    25    1
    52    24    51    1
    53    25    26    1
    54    25    52    1
    55    25    53    1
    56    26    54    1
    57    26    55    1
@<TRIPOS>SUBSTRUCTURE
     1 ZINC001082278299        1 TEMP              0 ****  ****    0 ROOT


##########                                Name:    ZINC000534890536
##########                DOCK_Rotatable_Bonds:                   6
##########                         Heavy_Atoms:                  30
##########                    Molecular_Weight:             411.476
##########                DOCK_Rotatable_Bonds:                   6
##########                       Formal_Charge:          0.00999957
##########                     HBond_Acceptors:                   7
##########                        HBond_Donors:                   1
##########                         Heavy_Atoms:                  30
##########                          Grid_Score:          -32.720348
##########                     Grid_vdw_energy:          -30.131336
##########                      Grid_es_energy:           -2.589012
##########           Internal_energy_repulsive:           16.333397

@<TRIPOS>MOLECULE
ZINC000534890536
 56 59 1 0 0
SMALL
USER_CHARGES


@<TRIPOS>ATOM
      1 C1        -14.9326    1.6562   48.8116 C.3     1  ZINC000534890536    0.0300
      2 O2        -14.5348    2.0397   50.1295 O.3     1  ZINC000534890536   -0.3200
      3 C3        -13.8685    1.1130   50.8670 C.ar    1  ZINC000534890536    0.1300
      4 C4        -13.5971   -0.1375   50.3309 C.ar    1  ZINC000534890536   -0.2100
      5 C5        -12.9192   -1.0776   51.0826 C.ar    1  ZINC000534890536   -0.0700
      6 C6        -12.5117   -0.7734   52.3683 C.ar    1  ZINC000534890536   -0.1100
      7 C7        -11.7729   -1.8011   53.1863 C.3     1  ZINC000534890536   -0.0600
      8 H8        -10.6952   -1.6928   53.0649 H       1  ZINC000534890536    0.0900
      9 C9        -12.2322   -3.2375   52.8212 C.3     1  ZINC000534890536   -0.1200
     10 C10       -11.9494   -4.0300   54.1148 C.3     1  ZINC000534890536    0.1000
     11 N11       -11.9079   -3.0613   55.2199 N.am    1  ZINC000534890536   -0.6400
     12 C12       -11.6645   -3.3546   56.5128 C.2     1  ZINC000534890536    0.7300
     13 O13       -11.4539   -4.5047   56.8461 O.2     1  ZINC000534890536   -0.5700
     14 N14       -11.6546   -2.3729   57.4361 N.am    1  ZINC000534890536   -0.7300
     15 C15       -11.3917   -2.6919   58.8416 C.3     1  ZINC000534890536    0.1600
     16 H16       -11.9925   -3.5523   59.1362 H       1  ZINC000534890536    0.1200
     17 C17        -9.9078   -3.0232   59.0188 C.3     1  ZINC000534890536   -0.1300
     18 C18        -9.6003   -3.0820   60.5200 C.3     1  ZINC000534890536   -0.1300
     19 C19        -9.7381   -1.6753   61.1035 C.3     1  ZINC000534890536    0.1100
     20 N20       -11.0147   -1.0863   60.7190 N.am    1  ZINC000534890536   -0.5600
     21 C21       -11.4905   -0.0036   61.4691 C.ar    1  ZINC000534890536    0.1000
     22 C22       -10.8811    1.2385   61.3614 C.ar    1  ZINC000534890536   -0.0800
     23 C23       -11.3530    2.3051   62.1023 C.ar    1  ZINC000534890536   -0.1200
     24 C24       -12.4309    2.1370   62.9514 C.ar    1  ZINC000534890536   -0.0800
     25 C25       -13.0417    0.9010   63.0624 C.ar    1  ZINC000534890536   -0.1500
     26 C26       -12.5785   -0.1693   62.3197 C.ar    1  ZINC000534890536    0.1100
     27 F27       -13.1751   -1.3766   62.4277 F       1  ZINC000534890536   -0.1300
     28 C28       -11.7559   -1.5127   59.6973 C.2     1  ZINC000534890536    0.5000
     29 O29       -12.7825   -0.9180   59.4453 O.2     1  ZINC000534890536   -0.5100
     30 C30       -12.1748   -1.7154   54.6799 C.3     1  ZINC000534890536    0.1300
     31 C31       -12.7807    0.4723   52.9048 C.ar    1  ZINC000534890536   -0.0700
     32 C32       -13.4537    1.4177   52.1554 C.ar    1  ZINC000534890536   -0.1500
     33 H33       -14.0502    1.3958   48.2270 H       1  ZINC000534890536    0.0600
     34 H34       -15.5976    0.7944   48.8691 H       1  ZINC000534890536    0.0600
     35 H35       -15.4535    2.4857   48.3334 H       1  ZINC000534890536    0.1000
     36 H36       -13.9157   -0.3758   49.3270 H       1  ZINC000534890536    0.1300
     37 H37       -12.7076   -2.0512   50.6657 H       1  ZINC000534890536    0.1300
     38 H38       -13.2959   -3.2536   52.5838 H       1  ZINC000534890536    0.0800
     39 H39       -11.6447   -3.6310   51.9916 H       1  ZINC000534890536    0.0900
     40 H40       -12.7451   -4.7549   54.2868 H       1  ZINC000534890536    0.0700
     41 H41       -10.9903   -4.5416   54.0340 H       1  ZINC000534890536    0.0700
     42 H42       -11.8214   -1.4550   57.1701 H       1  ZINC000534890536    0.4000
     43 H43        -9.6901   -3.9883   58.5616 H       1  ZINC000534890536    0.0900
     44 H44        -9.3003   -2.2491   58.5499 H       1  ZINC000534890536    0.0800
     45 H45       -10.3050   -3.7525   61.0117 H       1  ZINC000534890536    0.0800
     46 H46        -8.5828   -3.4425   60.6710 H       1  ZINC000534890536    0.1000
     47 H47        -9.6789   -1.7287   62.1907 H       1  ZINC000534890536    0.0800
     48 H48        -8.9263   -1.0499   60.7319 H       1  ZINC000534890536    0.0700
     49 H49       -10.0385    1.3713   60.6990 H       1  ZINC000534890536    0.1300
     50 H50       -10.8787    3.2717   62.0183 H       1  ZINC000534890536    0.1300
     51 H51       -12.7967    2.9726   63.5296 H       1  ZINC000534890536    0.1400
     52 H52       -13.8836    0.7729   63.7266 H       1  ZINC000534890536    0.1400
     53 H53       -11.5664   -0.9722   55.1955 H       1  ZINC000534890536    0.0800
     54 H54       -13.2331   -1.4718   54.7740 H       1  ZINC000534890536    0.0700
     55 H55       -12.4611    0.7076   53.9092 H       1  ZINC000534890536    0.1300
     56 H56       -13.6635    2.3905   52.5748 H       1  ZINC000534890536    0.1300
@<TRIPOS>BOND
     1     1     2    1
     2     1    33    1
     3     1    34    1
     4     1    35    1
     5     2     3    1
     6     3    32   ar
     7     3     4   ar
     8     4     5   ar
     9     4    36    1
    10     5     6   ar
    11     5    37    1
    12     6     7    1
    13     6    31   ar
    14     7     8    1
    15     7    30    1
    16     7     9    1
    17     9    10    1
    18     9    38    1
    19     9    39    1
    20    10    11    1
    21    10    40    1
    22    10    41    1
    23    11    12   am
    24    11    30    1
    25    12    13    2
    26    12    14   am
    27    14    15    1
    28    14    42    1
    29    15    16    1
    30    15    28    1
    31    15    17    1
    32    17    18    1
    33    17    43    1
    34    17    44    1
    35    18    19    1
    36    18    45    1
    37    18    46    1
    38    19    20    1
    39    19    47    1
    40    19    48    1
    41    20    21    1
    42    20    28   am
    43    21    26   ar
    44    21    22   ar
    45    22    23   ar
    46    22    49    1
    47    23    24   ar
    48    23    50    1
    49    24    25   ar
    50    24    51    1
    51    25    26   ar
    52    25    52    1
    53    26    27    1
    54    28    29    2
    55    30    53    1
    56    30    54    1
    57    31    32   ar
    58    31    55    1
    59    32    56    1
@<TRIPOS>SUBSTRUCTURE
     1 ZINC000534890536        1 TEMP              0 ****  ****    0 ROOT


##########                                Name:    ZINC000948289723
##########                DOCK_Rotatable_Bonds:                   6
##########                         Heavy_Atoms:                  24
##########                    Molecular_Weight:             331.415
##########                DOCK_Rotatable_Bonds:                   6
##########                       Formal_Charge:           0.0599999
##########                     HBond_Acceptors:                   6
##########                        HBond_Donors:                   1
##########                         Heavy_Atoms:                  24
##########                          Grid_Score:          -32.707527
##########                     Grid_vdw_energy:          -32.193546
##########                      Grid_es_energy:           -0.513983
##########           Internal_energy_repulsive:            8.580949

@<TRIPOS>MOLECULE
ZINC000948289723
 49 52 1 0 0
SMALL
USER_CHARGES


@<TRIPOS>ATOM
      1 C1        -13.8164   -5.1371   57.0374 C.3     1  ZINC000948289723   -0.1400
      2 C2        -12.7171   -4.0901   56.8468 C.3     1  ZINC000948289723   -0.1100
      3 C3        -12.6486   -3.0550   57.9820 C.3     1  ZINC000948289723   -0.1100
      4 C4        -11.1178   -3.1531   57.8730 C.3     1  ZINC000948289723   -0.1400
      5 C5        -10.4155   -3.1385   59.2063 C.2     1  ZINC000948289723    0.5400
      6 O6         -9.8448   -4.1327   59.6020 O.2     1  ZINC000948289723   -0.5300
      7 N7        -10.4218   -2.0205   59.9589 N.am    1  ZINC000948289723   -0.6200
      8 C8        -11.0718   -0.7510   59.6021 C.3     1  ZINC000948289723    0.1100
      9 C9        -10.8394    0.2277   60.7724 C.3     1  ZINC000948289723   -0.1100
     10 H10        -9.9787    0.8669   60.5756 H       1  ZINC000948289723    0.1000
     11 C11       -12.0898    1.0710   61.0296 C.3     1  ZINC000948289723   -0.1400
     12 C12       -10.5568   -0.7207   61.9676 C.3     1  ZINC000948289723    0.1400
     13 H13       -11.4861   -1.0863   62.4043 H       1  ZINC000948289723    0.1200
     14 N14        -9.7293   -0.0586   62.9791 N.am    1  ZINC000948289723   -0.7100
     15 C15       -10.3100    0.5458   64.0345 C.2     1  ZINC000948289723    0.6100
     16 O16       -11.5205    0.5403   64.1480 O.2     1  ZINC000948289723   -0.5000
     17 C17        -9.4769    1.2140   65.0521 C.2     1  ZINC000948289723   -0.0900
     18 C18        -8.1122    1.3113   65.0630 C.2     1  ZINC000948289723   -0.1400
     19 C19        -7.8346    2.0393   66.2414 C.2     1  ZINC000948289723    0.0500
     20 C20        -6.4750    2.4388   66.7541 C.3     1  ZINC000948289723   -0.0900
     21 C21        -5.3256    2.4862   65.7454 C.3     1  ZINC000948289723   -0.1600
     22 C22        -5.9149    3.7867   66.2952 C.3     1  ZINC000948289723   -0.1600
     23 N23        -8.9823    2.2978   66.7974 N.2     1  ZINC000948289723   -0.3300
     24 O24        -9.9061    1.8564   66.1547 O.3     1  ZINC000948289723    0.1200
     25 C25        -9.7833   -1.8700   61.2792 C.3     1  ZINC000948289723    0.0900
     26 C26       -11.3276   -4.5657   57.3027 C.3     1  ZINC000948289723   -0.1200
     27 H27       -13.8918   -5.3966   58.0934 H       1  ZINC000948289723    0.0600
     28 H28       -14.7680   -4.7313   56.6941 H       1  ZINC000948289723    0.0600
     29 H29       -13.5725   -6.0292   56.4606 H       1  ZINC000948289723    0.0600
     30 H30       -12.7220   -3.6478   55.8505 H       1  ZINC000948289723    0.0900
     31 H31       -13.0443   -2.0775   57.7061 H       1  ZINC000948289723    0.0700
     32 H32       -13.0432   -3.4202   58.9302 H       1  ZINC000948289723    0.1000
     33 H33       -10.6851   -2.4523   57.1590 H       1  ZINC000948289723    0.1100
     34 H34       -10.6282   -0.3507   58.6905 H       1  ZINC000948289723    0.0800
     35 H35       -12.1406   -0.9094   59.4581 H       1  ZINC000948289723    0.0800
     36 H36       -12.9308    0.4148   61.2535 H       1  ZINC000948289723    0.0600
     37 H37       -11.9123    1.7356   61.8751 H       1  ZINC000948289723    0.0600
     38 H38       -12.3172    1.6633   60.1433 H       1  ZINC000948289723    0.0700
     39 H39        -8.7635   -0.0553   62.8891 H       1  ZINC000948289723    0.4100
     40 H40        -7.4108    0.9220   64.3399 H       1  ZINC000948289723    0.1800
     41 H41        -6.2416    2.1160   67.7687 H       1  ZINC000948289723    0.1300
     42 H42        -4.3357    2.1944   66.0962 H       1  ZINC000948289723    0.1100
     43 H43        -5.5527    2.2284   64.7110 H       1  ZINC000948289723    0.1000
     44 H44        -6.5300    4.3844   65.6225 H       1  ZINC000948289723    0.1000
     45 H45        -5.3129    4.3504   67.0078 H       1  ZINC000948289723    0.1100
     46 H46        -9.8770   -2.7896   61.8568 H       1  ZINC000948289723    0.0900
     47 H47        -8.7337   -1.6019   61.1587 H       1  ZINC000948289723    0.0800
     48 H48       -11.3610   -5.3439   58.0652 H       1  ZINC000948289723    0.0900
     49 H49       -10.6568   -4.8079   56.4785 H       1  ZINC000948289723    0.0800
@<TRIPOS>BOND
     1     1     2    1
     2     1    27    1
     3     1    28    1
     4     1    29    1
     5     2    26    1
     6     2     3    1
     7     2    30    1
     8     3     4    1
     9     3    31    1
    10     3    32    1
    11     4     5    1
    12     4    26    1
    13     4    33    1
    14     5     6    2
    15     5     7   am
    16     7    25    1
    17     7     8    1
    18     8     9    1
    19     8    34    1
    20     8    35    1
    21     9    10    1
    22     9    11    1
    23     9    12    1
    24    11    36    1
    25    11    37    1
    26    11    38    1
    27    12    13    1
    28    12    14    1
    29    12    25    1
    30    14    15   am
    31    14    39    1
    32    15    16    2
    33    15    17    1
    34    17    24    1
    35    17    18    2
    36    18    19    1
    37    18    40    1
    38    19    20    1
    39    19    23    2
    40    20    22    1
    41    20    21    1
    42    20    41    1
    43    21    22    1
    44    21    42    1
    45    21    43    1
    46    22    44    1
    47    22    45    1
    48    23    24    1
    49    25    46    1
    50    25    47    1
    51    26    48    1
    52    26    49    1
@<TRIPOS>SUBSTRUCTURE
     1 ZINC000948289723        1 TEMP              0 ****  ****    0 ROOT


##########                                Name:    ZINC000281257088
##########                DOCK_Rotatable_Bonds:                   8
##########                         Heavy_Atoms:                  27
##########                    Molecular_Weight:             395.541
##########                DOCK_Rotatable_Bonds:                   8
##########                       Formal_Charge:          -0.0200005
##########                     HBond_Acceptors:                   7
##########                        HBond_Donors:                   1
##########                         Heavy_Atoms:                  27
##########                          Grid_Score:          -32.694344
##########                     Grid_vdw_energy:          -33.281139
##########                      Grid_es_energy:            0.586796
##########           Internal_energy_repulsive:           25.373049

@<TRIPOS>MOLECULE
ZINC000281257088
 57 58 1 0 0
SMALL
USER_CHARGES


@<TRIPOS>ATOM
      1 C1         -9.1731   -3.7839   59.7628 C.3     1  ZINC000281257088   -0.0700
      2 C2        -10.1586   -2.7198   60.1721 C.2     1  ZINC000281257088    0.1000
      3 N3        -10.3283   -2.2566   61.3839 N.2     1  ZINC000281257088   -0.3000
      4 N4        -11.3341   -1.2824   61.3431 N.pl3   1  ZINC000281257088   -0.3700
      5 C5        -11.8348   -0.5124   62.4845 C.3     1  ZINC000281257088    0.1500
      6 C6        -11.3569    0.9366   62.3713 C.3     1  ZINC000281257088   -0.6400
      7 S7        -10.9501    1.5699   64.0218 S.o2    1  ZINC000281257088    2.4300
      8 C8         -9.3597    0.7621   64.3516 C.3     1  ZINC000281257088   -0.6500
      9 O9        -10.7352    2.9715   63.9287 O.2     1  ZINC000281257088   -0.9300
     10 O10       -11.9095    1.0749   64.9457 O.2     1  ZINC000281257088   -0.9300
     11 C11       -11.7602   -1.1785   60.0670 C.2     1  ZINC000281257088    0.0900
     12 C12       -12.8350   -0.2506   59.5619 C.3     1  ZINC000281257088   -0.1000
     13 C13       -11.0456   -2.0526   59.3210 C.2     1  ZINC000281257088   -0.2300
     14 C14       -11.1869   -2.2742   57.8372 C.3     1  ZINC000281257088    0.1400
     15 N15       -12.4694   -2.9350   57.5607 N.3     1  ZINC000281257088   -0.6700
     16 C16       -12.3885   -3.7532   56.3434 C.3     1  ZINC000281257088    0.1400
     17 H17       -11.6158   -4.5121   56.4664 H       1  ZINC000281257088    0.0500
     18 C18       -12.0459   -2.8736   55.1686 C.ar    1  ZINC000281257088   -0.0800
     19 C19       -12.5526   -1.5894   55.0965 C.ar    1  ZINC000281257088   -0.0600
     20 C20       -12.2391   -0.7818   54.0197 C.ar    1  ZINC000281257088   -0.1600
     21 C21       -11.4170   -1.2592   53.0132 C.ar    1  ZINC000281257088    0.1000
     22 F22       -11.1094   -0.4705   51.9603 F       1  ZINC000281257088   -0.1400
     23 C23       -10.9097   -2.5454   53.0868 C.ar    1  ZINC000281257088   -0.1600
     24 C24       -11.2206   -3.3494   54.1668 C.ar    1  ZINC000281257088   -0.0900
     25 C25       -13.7364   -4.4332   56.0953 C.3     1  ZINC000281257088   -0.0600
     26 C26       -13.8280   -5.7068   56.9382 C.3     1  ZINC000281257088   -0.1400
     27 C27       -14.8679   -3.4804   56.4863 C.3     1  ZINC000281257088   -0.1400
     28 C28       -13.8614   -4.7924   54.6134 C.3     1  ZINC000281257088   -0.1500
     29 H29        -8.2261   -3.3172   59.4918 H       1  ZINC000281257088    0.0800
     30 H30        -9.0147   -4.4715   60.5937 H       1  ZINC000281257088    0.0700
     31 H31        -9.5657   -4.3329   58.9069 H       1  ZINC000281257088    0.0800
     32 H32       -12.9245   -0.5362   62.4888 H       1  ZINC000281257088    0.1100
     33 H33       -11.4581   -0.9480   63.4100 H       1  ZINC000281257088    0.1100
     34 H34       -10.4710    0.9785   61.7376 H       1  ZINC000281257088    0.1400
     35 H35       -12.1466    1.5465   61.9326 H       1  ZINC000281257088    0.1400
     36 H36        -8.6376    1.0571   63.5903 H       1  ZINC000281257088    0.1300
     37 H37        -8.9959    1.0636   65.3339 H       1  ZINC000281257088    0.1300
     38 H38        -9.4901   -0.3199   64.3288 H       1  ZINC000281257088    0.1300
     39 H39       -12.3862    0.6968   59.2631 H       1  ZINC000281257088    0.0800
     40 H40       -13.3324   -0.7035   58.7043 H       1  ZINC000281257088    0.0900
     41 H41       -13.5636   -0.0739   60.3531 H       1  ZINC000281257088    0.0700
     42 H42       -11.1542   -1.3143   57.3217 H       1  ZINC000281257088    0.0800
     43 H43       -10.3702   -2.9040   57.4845 H       1  ZINC000281257088    0.0300
     44 H44       -12.7684   -3.4887   58.3494 H       1  ZINC000281257088    0.3400
     45 H45       -13.1939   -1.2172   55.8817 H       1  ZINC000281257088    0.1400
     46 H46       -12.6357    0.2212   53.9632 H       1  ZINC000281257088    0.1300
     47 H47       -10.2685   -2.9189   52.3021 H       1  ZINC000281257088    0.1300
     48 H48       -10.8248   -4.3527   54.2247 H       1  ZINC000281257088    0.1300
     49 H49       -13.7390   -5.4508   57.9940 H       1  ZINC000281257088    0.0600
     50 H50       -14.7883   -6.1912   56.7616 H       1  ZINC000281257088    0.0500
     51 H51       -13.0219   -6.3855   56.6597 H       1  ZINC000281257088    0.0600
     52 H52       -14.8027   -2.5731   55.8858 H       1  ZINC000281257088    0.0500
     53 H53       -15.8283   -3.9648   56.3096 H       1  ZINC000281257088    0.0600
     54 H54       -14.7789   -3.2246   57.5421 H       1  ZINC000281257088    0.0600
     55 H55       -13.1030   -5.5308   54.3533 H       1  ZINC000281257088    0.0500
     56 H56       -14.8517   -5.2057   54.4219 H       1  ZINC000281257088    0.0600
     57 H57       -13.7185   -3.8965   54.0091 H       1  ZINC000281257088    0.0600
@<TRIPOS>BOND
     1     1     2    1
     2     1    29    1
     3     1    30    1
     4     1    31    1
     5     2    13    1
     6     2     3    2
     7     3     4    1
     8     4     5    1
     9     4    11    1
    10     5     6    1
    11     5    32    1
    12     5    33    1
    13     6     7    1
    14     6    34    1
    15     6    35    1
    16     7     8    1
    17     7     9    2
    18     7    10    2
    19     8    36    1
    20     8    37    1
    21     8    38    1
    22    11    12    1
    23    11    13    2
    24    12    39    1
    25    12    40    1
    26    12    41    1
    27    13    14    1
    28    14    15    1
    29    14    42    1
    30    14    43    1
    31    15    16    1
    32    15    44    1
    33    16    17    1
    34    16    18    1
    35    16    25    1
    36    18    24   ar
    37    18    19   ar
    38    19    20   ar
    39    19    45    1
    40    20    21   ar
    41    20    46    1
    42    21    22    1
    43    21    23   ar
    44    23    24   ar
    45    23    47    1
    46    24    48    1
    47    25    26    1
    48    25    27    1
    49    25    28    1
    50    26    49    1
    51    26    50    1
    52    26    51    1
    53    27    52    1
    54    27    53    1
    55    27    54    1
    56    28    55    1
    57    28    56    1
    58    28    57    1
@<TRIPOS>SUBSTRUCTURE
     1 ZINC000281257088        1 TEMP              0 ****  ****    0 ROOT


##########                                Name:    ZINC000867639366
##########                DOCK_Rotatable_Bonds:                   6
##########                         Heavy_Atoms:                  25
##########                    Molecular_Weight:             388.509
##########                DOCK_Rotatable_Bonds:                   6
##########                       Formal_Charge:          0.00999961
##########                     HBond_Acceptors:                   9
##########                        HBond_Donors:                   1
##########                         Heavy_Atoms:                  25
##########                          Grid_Score:          -32.693935
##########                     Grid_vdw_energy:          -32.213715
##########                      Grid_es_energy:           -0.480221
##########           Internal_energy_repulsive:           41.057285

@<TRIPOS>MOLECULE
ZINC000867639366
 49 51 1 0 0
SMALL
USER_CHARGES


@<TRIPOS>ATOM
      1 C1         -9.7312    0.0168   64.3219 C.3     1  ZINC000867639366    0.0300
      2 O2        -10.9166   -0.3268   63.6016 O.3     1  ZINC000867639366   -0.3800
      3 C3        -11.3827    0.7013   62.7253 C.3     1  ZINC000867639366    0.0800
      4 H4        -11.0634    1.6730   63.1022 H       1  ZINC000867639366    0.0800
      5 C5        -12.9109    0.6580   62.6543 C.3     1  ZINC000867639366   -0.1400
      6 C6        -13.3614   -0.7174   62.1572 C.3     1  ZINC000867639366   -0.1200
      7 C7        -12.8051   -0.9547   60.7497 C.3     1  ZINC000867639366    0.1500
      8 H8        -13.2486   -0.2402   60.0563 H       1  ZINC000867639366    0.0800
      9 C9        -13.1369   -2.3791   60.3003 C.3     1  ZINC000867639366   -0.1900
     10 N10       -11.3476   -0.7717   60.7802 N.am    1  ZINC000867639366   -0.9800
     11 S11       -10.3368   -1.9538   60.2117 S.o2    1  ZINC000867639366    2.6900
     12 O12        -9.0248   -1.4087   60.2422 O.2     1  ZINC000867639366   -0.9500
     13 O13       -10.6973   -3.1499   60.8888 O.2     1  ZINC000867639366   -0.9400
     14 C14       -10.7317   -2.2052   58.5130 C.ar    1  ZINC000867639366   -0.6300
     15 C15       -11.1062   -1.1333   57.7246 C.ar    1  ZINC000867639366   -0.0500
     16 C16       -11.4160   -1.3305   56.3918 C.ar    1  ZINC000867639366   -0.0400
     17 C17       -11.3508   -2.5995   55.8475 C.ar    1  ZINC000867639366   -0.6300
     18 S18       -11.7462   -2.8510   54.1490 S.o2    1  ZINC000867639366    2.7000
     19 O19       -11.8238   -1.5603   53.5597 O.2     1  ZINC000867639366   -0.9400
     20 O20       -10.8720   -3.8683   53.6799 O.2     1  ZINC000867639366   -0.9500
     21 N21       -13.2751   -3.4845   54.0902 N.am    1  ZINC000867639366   -1.0800
     22 C22       -13.5654   -4.7597   54.7503 C.3     1  ZINC000867639366    0.0800
     23 C23       -13.9298   -4.7195   56.2357 C.3     1  ZINC000867639366   -0.1800
     24 C24       -15.0082   -5.0147   55.1912 C.3     1  ZINC000867639366   -0.1900
     25 C25       -10.9749   -3.6711   56.6356 C.ar    1  ZINC000867639366   -0.0400
     26 C26       -10.6614   -3.4733   57.9674 C.ar    1  ZINC000867639366   -0.0400
     27 C27       -10.8034    0.4807   61.3245 C.3     1  ZINC000867639366    0.1200
     28 H28        -8.9267    0.2283   63.6177 H       1  ZINC000867639366    0.0400
     29 H29        -9.9204    0.8991   64.9333 H       1  ZINC000867639366    0.0400
     30 H30        -9.4425   -0.8152   64.9643 H       1  ZINC000867639366    0.0900
     31 H31       -13.3257    0.8396   63.6458 H       1  ZINC000867639366    0.0700
     32 H32       -13.2643    1.4264   61.9667 H       1  ZINC000867639366    0.0700
     33 H33       -12.9873   -1.4883   62.8309 H       1  ZINC000867639366    0.0800
     34 H34       -14.4504   -0.7555   62.1291 H       1  ZINC000867639366    0.0800
     35 H35       -14.2131   -2.4728   60.1548 H       1  ZINC000867639366    0.0700
     36 H36       -12.6235   -2.5932   59.3630 H       1  ZINC000867639366    0.0600
     37 H37       -12.8105   -3.0860   61.0631 H       1  ZINC000867639366    0.1000
     38 H38       -11.1573   -0.1418   58.1498 H       1  ZINC000867639366    0.1600
     39 H39       -11.7094   -0.4932   55.7760 H       1  ZINC000867639366    0.1500
     40 H40       -13.9785   -3.0113   53.6187 H       1  ZINC000867639366    0.4200
     41 H41       -12.9889   -5.6144   54.3961 H       1  ZINC000867639366    0.1400
     42 H42       -13.5929   -5.5476   56.8592 H       1  ZINC000867639366    0.1100
     43 H43       -13.9536   -3.7442   56.7218 H       1  ZINC000867639366    0.1000
     44 H44       -15.7413   -4.2336   54.9902 H       1  ZINC000867639366    0.1000
     45 H45       -15.3807   -6.0370   55.1275 H       1  ZINC000867639366    0.1000
     46 H46       -10.9236   -4.6625   56.2103 H       1  ZINC000867639366    0.1500
     47 H47       -10.3677   -4.3106   58.5831 H       1  ZINC000867639366    0.1500
     48 H48       -11.0836    1.3123   60.6779 H       1  ZINC000867639366    0.0900
     49 H49        -9.7173    0.4116   61.3843 H       1  ZINC000867639366    0.1000
@<TRIPOS>BOND
     1     1     2    1
     2     1    28    1
     3     1    29    1
     4     1    30    1
     5     2     3    1
     6     3     4    1
     7     3    27    1
     8     3     5    1
     9     5     6    1
    10     5    31    1
    11     5    32    1
    12     6     7    1
    13     6    33    1
    14     6    34    1
    15     7     8    1
    16     7     9    1
    17     7    10    1
    18     9    35    1
    19     9    36    1
    20     9    37    1
    21    10    11   am
    22    10    27    1
    23    11    12    2
    24    11    13    2
    25    11    14    1
    26    14    26   ar
    27    14    15   ar
    28    15    16   ar
    29    15    38    1
    30    16    17   ar
    31    16    39    1
    32    17    18    1
    33    17    25   ar
    34    18    19    2
    35    18    20    2
    36    18    21   am
    37    21    22    1
    38    21    40    1
    39    22    24    1
    40    22    23    1
    41    22    41    1
    42    23    24    1
    43    23    42    1
    44    23    43    1
    45    24    44    1
    46    24    45    1
    47    25    26   ar
    48    25    46    1
    49    26    47    1
    50    27    48    1
    51    27    49    1
@<TRIPOS>SUBSTRUCTURE
     1 ZINC000867639366        1 TEMP              0 ****  ****    0 ROOT


##########                                Name:    ZINC000439870054
##########                DOCK_Rotatable_Bonds:                   5
##########                         Heavy_Atoms:                  27
##########                    Molecular_Weight:             421.974
##########                DOCK_Rotatable_Bonds:                   5
##########                       Formal_Charge:           0.0200003
##########                     HBond_Acceptors:                   9
##########                        HBond_Donors:                   0
##########                         Heavy_Atoms:                  27
##########                          Grid_Score:          -32.690411
##########                     Grid_vdw_energy:          -31.566488
##########                      Grid_es_energy:           -1.123923
##########           Internal_energy_repulsive:           65.148041

@<TRIPOS>MOLECULE
ZINC000439870054
 47 50 1 0 0
SMALL
USER_CHARGES


@<TRIPOS>ATOM
      1 C1        -11.9920    1.1875   63.2030 C.3     1  ZINC000439870054   -0.1400
      2 C2        -10.4628    1.1455   63.1842 C.3     1  ZINC000439870054    0.0000
      3 C3         -9.9386    1.0099   64.6153 C.3     1  ZINC000439870054   -0.1400
      4 C4        -10.0025   -0.0341   62.3669 C.2     1  ZINC000439870054    0.1900
      5 N5         -9.4532   -1.1296   62.8245 N.2     1  ZINC000439870054   -0.2900
      6 N6         -9.1841   -1.9238   61.8452 N.2     1  ZINC000439870054   -0.2700
      7 C7         -9.5462   -1.3706   60.7291 C.2     1  ZINC000439870054    0.1600
      8 C8         -9.4214   -1.9101   59.3246 C.3     1  ZINC000439870054    0.2400
      9 H9         -8.3759   -1.9077   59.0166 H       1  ZINC000439870054    0.1100
     10 C10        -9.9810   -3.3327   59.2602 C.3     1  ZINC000439870054   -0.1300
     11 N11       -10.2062   -1.0184   58.4498 N.am    1  ZINC000439870054   -0.6300
     12 C12       -11.0053   -1.5195   57.4871 C.2     1  ZINC000439870054    0.5300
     13 O13       -11.0869   -2.7194   57.3305 O.2     1  ZINC000439870054   -0.4900
     14 C14       -11.7976   -0.5889   56.6055 C.3     1  ZINC000439870054   -0.0700
     15 C15       -12.8445   -1.3745   55.8584 C.2     1  ZINC000439870054    0.0900
     16 C16       -13.7147   -2.1714   56.4853 C.2     1  ZINC000439870054   -0.2400
     17 S17       -14.7638   -2.9054   55.2742 S.3     1  ZINC000439870054    0.1300
     18 C18       -13.8992   -2.0395   54.0067 C.2     1  ZINC000439870054    0.1400
     19 C19       -14.1917   -2.1173   52.5672 C.2     1  ZINC000439870054   -0.1300
     20 C20       -13.3250   -1.8105   51.5774 C.2     1  ZINC000439870054   -0.1000
     21 C21       -13.8288   -1.9624   50.3037 C.2     1  ZINC000439870054   -0.1200
     22 C22       -15.0959   -2.3895   50.2423 C.2     1  ZINC000439870054   -0.1500
     23 Cl23      -15.9856   -2.6691   48.7781 Cl      1  ZINC000439870054    0.0000
     24 S24       -15.7215   -2.6315   51.8679 S.3     1  ZINC000439870054    0.2500
     25 N25       -12.9611   -1.3138   54.5511 N.2     1  ZINC000439870054   -0.4400
     26 C26       -10.0920    0.4330   58.6583 C.3     1  ZINC000439870054    0.0900
     27 C27       -10.6229    0.7866   60.0526 C.3     1  ZINC000439870054    0.0900
     28 N28       -10.0849   -0.1611   61.0276 N.pl3   1  ZINC000439870054   -0.4700
     29 H29       -12.3249    2.0405   63.7942 H       1  ZINC000439870054    0.0700
     30 H30       -12.3654    1.2840   62.1834 H       1  ZINC000439870054    0.0500
     31 H31       -12.3753    0.2676   63.6447 H       1  ZINC000439870054    0.0700
     32 H32       -10.0794    2.0653   62.7426 H       1  ZINC000439870054    0.0800
     33 H33        -8.8491    0.9800   64.6020 H       1  ZINC000439870054    0.0500
     34 H34       -10.2715    1.8630   65.2065 H       1  ZINC000439870054    0.0700
     35 H35       -10.3220    0.0901   65.0570 H       1  ZINC000439870054    0.0700
     36 H36       -11.0608   -3.3054   59.4065 H       1  ZINC000439870054    0.0600
     37 H37        -9.7573   -3.7674   58.2859 H       1  ZINC000439870054    0.0900
     38 H38        -9.5236   -3.9388   60.0422 H       1  ZINC000439870054    0.0700
     39 H39       -12.2824    0.1693   57.2204 H       1  ZINC000439870054    0.1100
     40 H40       -11.1287   -0.1060   55.8932 H       1  ZINC000439870054    0.1200
     41 H41       -13.7661   -2.3375   57.5512 H       1  ZINC000439870054    0.1800
     42 H42       -12.3174   -1.4725   51.7690 H       1  ZINC000439870054    0.1500
     43 H43       -13.2444   -1.7521   49.4201 H       1  ZINC000439870054    0.1600
     44 H44        -9.0464    0.7308   58.5805 H       1  ZINC000439870054    0.0900
     45 H45       -10.6774    0.9565   57.9023 H       1  ZINC000439870054    0.1200
     46 H46       -10.3125    1.7981   60.3147 H       1  ZINC000439870054    0.1100
     47 H47       -11.7113    0.7268   60.0540 H       1  ZINC000439870054    0.0900
@<TRIPOS>BOND
     1     1     2    1
     2     1    29    1
     3     1    30    1
     4     1    31    1
     5     2     3    1
     6     2     4    1
     7     2    32    1
     8     3    33    1
     9     3    34    1
    10     3    35    1
    11     4    28    1
    12     4     5    2
    13     5     6    1
    14     6     7    2
    15     7    28    1
    16     7     8    1
    17     8     9    1
    18     8    10    1
    19     8    11    1
    20    10    36    1
    21    10    37    1
    22    10    38    1
    23    11    12   am
    24    11    26    1
    25    12    13    2
    26    12    14    1
    27    14    15    1
    28    14    39    1
    29    14    40    1
    30    15    25    1
    31    15    16    2
    32    16    17    1
    33    16    41    1
    34    17    18    1
    35    18    19    1
    36    18    25    2
    37    19    24    1
    38    19    20    2
    39    20    21    1
    40    20    42    1
    41    21    22    2
    42    21    43    1
    43    22    23    1
    44    22    24    1
    45    26    27    1
    46    26    44    1
    47    26    45    1
    48    27    28    1
    49    27    46    1
    50    27    47    1
@<TRIPOS>SUBSTRUCTURE
     1 ZINC000439870054        1 TEMP              0 ****  ****    0 ROOT


##########                                Name:    ZINC001060578637
##########                DOCK_Rotatable_Bonds:                  10
##########                         Heavy_Atoms:                  25
##########                    Molecular_Weight:             345.401
##########                DOCK_Rotatable_Bonds:                  10
##########                       Formal_Charge:          -0.0400001
##########                     HBond_Acceptors:                   8
##########                        HBond_Donors:                   3
##########                         Heavy_Atoms:                  25
##########                          Grid_Score:          -32.684811
##########                     Grid_vdw_energy:          -30.149076
##########                      Grid_es_energy:           -2.535733
##########           Internal_energy_repulsive:           13.082059

@<TRIPOS>MOLECULE
ZINC001060578637
 48 49 1 0 0
SMALL
USER_CHARGES


@<TRIPOS>ATOM
      1 C1        -13.6925   -1.4957   51.7662 C.3     1  ZINC001060578637   -0.1500
      2 C2        -13.2064   -2.2240   53.0207 C.3     1  ZINC001060578637   -0.1300
      3 C3        -14.1691   -3.3659   53.3529 C.3     1  ZINC001060578637    0.0700
      4 H4        -14.3541   -3.9575   52.4563 H       1  ZINC001060578637    0.0900
      5 O5        -15.4028   -2.8252   53.8297 O.3     1  ZINC001060578637   -0.3600
      6 C6        -16.5140   -3.7154   53.7062 C.3     1  ZINC001060578637    0.0300
      7 C7        -13.5604   -4.2428   54.4166 C.2     1  ZINC001060578637    0.5000
      8 O8        -12.4096   -4.6114   54.3134 O.2     1  ZINC001060578637   -0.5200
      9 N9        -14.2951   -4.6174   55.4827 N.am    1  ZINC001060578637   -0.7300
     10 C10       -13.7029   -5.4685   56.5177 C.3     1  ZINC001060578637    0.1600
     11 C11       -12.7292   -4.6604   57.3361 C.ar    1  ZINC001060578637   -0.1100
     12 C12       -11.4367   -5.1150   57.5198 C.ar    1  ZINC001060578637   -0.0900
     13 C13       -10.5435   -4.3737   58.2705 C.ar    1  ZINC001060578637   -0.1100
     14 C14       -10.9426   -3.1776   58.8371 C.ar    1  ZINC001060578637   -0.0900
     15 C15        -9.9690   -2.3697   59.6559 C.3     1  ZINC001060578637    0.1800
     16 H16        -8.9515   -2.5926   59.3346 H       1  ZINC001060578637    0.1000
     17 C17       -10.1267   -2.7274   61.1351 C.3     1  ZINC001060578637   -0.1600
     18 N18       -10.2389   -0.9422   59.4672 N.am    1  ZINC001060578637   -0.7000
     19 C19        -9.8553   -0.3283   58.3304 C.2     1  ZINC001060578637    0.6100
     20 O20        -9.2837   -0.9589   57.4619 O.2     1  ZINC001060578637   -0.5300
     21 C21       -10.1286    1.1081   58.1398 C.2     1  ZINC001060578637    0.1200
     22 N22       -10.1203    1.7621   56.9980 N.2     1  ZINC001060578637   -0.2400
     23 N23       -10.4035    2.9983   57.2106 N.2     1  ZINC001060578637   -0.2900
     24 C24       -10.6062    3.1971   58.4901 C.2     1  ZINC001060578637    0.1900
     25 N25       -10.4454    2.0153   59.1178 N.pl3   1  ZINC001060578637   -0.5500
     26 C26       -12.2347   -2.7224   58.6522 C.ar    1  ZINC001060578637   -0.1100
     27 C27       -13.1267   -3.4617   57.8984 C.ar    1  ZINC001060578637   -0.0900
     28 H28       -12.9902   -0.7020   51.5117 H       1  ZINC001060578637    0.0600
     29 H29       -13.7581   -2.2019   50.9385 H       1  ZINC001060578637    0.0500
     30 H30       -14.6757   -1.0642   51.9545 H       1  ZINC001060578637    0.0600
     31 H31       -12.2102   -2.6289   52.8428 H       1  ZINC001060578637    0.0800
     32 H32       -13.1704   -1.5245   53.8560 H       1  ZINC001060578637    0.0800
     33 H33       -17.3953   -3.2617   54.1596 H       1  ZINC001060578637    0.0900
     34 H34       -16.7076   -3.9105   52.6515 H       1  ZINC001060578637    0.0500
     35 H35       -16.2864   -4.6530   54.2135 H       1  ZINC001060578637    0.0400
     36 H36       -15.2159   -4.3237   55.5645 H       1  ZINC001060578637    0.4000
     37 H37       -14.4902   -5.8537   57.1657 H       1  ZINC001060578637    0.0800
     38 H38       -13.1793   -6.3010   56.0478 H       1  ZINC001060578637    0.0800
     39 H39       -11.1248   -6.0493   57.0771 H       1  ZINC001060578637    0.1300
     40 H40        -9.5339   -4.7292   58.4147 H       1  ZINC001060578637    0.1300
     41 H41       -11.1442   -2.5045   61.4563 H       1  ZINC001060578637    0.0600
     42 H42        -9.9258   -3.7895   61.2755 H       1  ZINC001060578637    0.0700
     43 H43        -9.4225   -2.1430   61.7273 H       1  ZINC001060578637    0.0700
     44 H44       -10.6938   -0.4389   60.1605 H       1  ZINC001060578637    0.4100
     45 H45       -10.8601    4.1374   58.9567 H       1  ZINC001060578637    0.2300
     46 H46       -10.5309    1.8429   60.0685 H       1  ZINC001060578637    0.4400
     47 H47       -12.5464   -1.7878   59.0946 H       1  ZINC001060578637    0.1300
     48 H48       -14.1363   -3.1061   57.7540 H       1  ZINC001060578637    0.1300
@<TRIPOS>BOND
     1     1     2    1
     2     1    28    1
     3     1    29    1
     4     1    30    1
     5     2     3    1
     6     2    31    1
     7     2    32    1
     8     3     4    1
     9     3     5    1
    10     3     7    1
    11     5     6    1
    12     6    33    1
    13     6    34    1
    14     6    35    1
    15     7     8    2
    16     7     9   am
    17     9    10    1
    18     9    36    1
    19    10    11    1
    20    10    37    1
    21    10    38    1
    22    11    27   ar
    23    11    12   ar
    24    12    13   ar
    25    12    39    1
    26    13    14   ar
    27    13    40    1
    28    14    15    1
    29    14    26   ar
    30    15    16    1
    31    15    17    1
    32    15    18    1
    33    17    41    1
    34    17    42    1
    35    17    43    1
    36    18    19   am
    37    18    44    1
    38    19    20    2
    39    19    21    1
    40    21    25    1
    41    21    22    2
    42    22    23    1
    43    23    24    2
    44    24    25    1
    45    24    45    1
    46    25    46    1
    47    26    27   ar
    48    26    47    1
    49    27    48    1
@<TRIPOS>SUBSTRUCTURE
     1 ZINC001060578637        1 TEMP              0 ****  ****    0 ROOT


##########                                Name:    ZINC000673213454
##########                DOCK_Rotatable_Bonds:                   7
##########                         Heavy_Atoms:                  26
##########                    Molecular_Weight:             360.453
##########                DOCK_Rotatable_Bonds:                   7
##########                       Formal_Charge:          -0.0100001
##########                     HBond_Acceptors:                   6
##########                        HBond_Donors:                   1
##########                         Heavy_Atoms:                  26
##########                          Grid_Score:          -32.671272
##########                     Grid_vdw_energy:          -32.801006
##########                      Grid_es_energy:            0.129734
##########           Internal_energy_repulsive:           15.956339

@<TRIPOS>MOLECULE
ZINC000673213454
 54 56 1 0 0
SMALL
USER_CHARGES


@<TRIPOS>ATOM
      1 C1        -14.3781   -5.7008   55.9637 C.3     1  ZINC000673213454   -0.1700
      2 C2        -13.6856   -4.3372   55.9153 C.3     1  ZINC000673213454    0.1400
      3 H3        -14.4007   -3.5776   55.5995 H       1  ZINC000673213454    0.0900
      4 C4        -12.5247   -4.3898   54.9201 C.3     1  ZINC000673213454   -0.1200
      5 C5        -12.3987   -3.0396   54.2118 C.3     1  ZINC000673213454   -0.1300
      6 H6        -12.2136   -2.2459   54.9355 H       1  ZINC000673213454    0.0800
      7 C7        -13.6758   -2.7372   53.3906 C.3     1  ZINC000673213454   -0.1500
      8 C8        -13.0904   -2.1181   52.0960 C.3     1  ZINC000673213454    0.0500
      9 O9        -11.8847   -2.8805   51.8733 O.3     1  ZINC000673213454   -0.3800
     10 C10       -11.2723   -3.0848   53.1610 C.3     1  ZINC000673213454    0.0500
     11 N11       -13.1733   -4.0023   57.2462 N.am    1  ZINC000673213454   -0.6900
     12 C12       -13.2764   -2.7411   57.7103 C.2     1  ZINC000673213454    0.5100
     13 O13       -13.7950   -1.8834   57.0263 O.2     1  ZINC000673213454   -0.5100
     14 C14       -12.7520   -2.3990   59.0673 C.2     1  ZINC000673213454    0.5000
     15 O15       -13.5043   -2.3711   60.0192 O.2     1  ZINC000673213454   -0.5200
     16 N16       -11.4437   -2.1218   59.2341 N.am    1  ZINC000673213454   -0.5800
     17 C17       -10.5538   -2.1639   58.0584 C.3     1  ZINC000673213454    0.1100
     18 C18        -9.5639   -0.9900   58.0740 C.3     1  ZINC000673213454   -0.1700
     19 C19       -10.2711    0.2643   58.5464 C.3     1  ZINC000673213454    0.0800
     20 O20       -10.1282    0.3659   59.9571 O.3     1  ZINC000673213454   -0.3800
     21 C21       -11.0425   -0.2620   60.7785 C.3     1  ZINC000673213454    0.1500
     22 H22       -12.0466    0.0874   60.5383 H       1  ZINC000673213454    0.0600
     23 C23       -10.7293    0.0600   62.2170 C.ar    1  ZINC000673213454   -0.0800
     24 C24        -9.6858   -0.5815   62.8576 C.ar    1  ZINC000673213454   -0.0900
     25 C25        -9.3985   -0.2860   64.1771 C.ar    1  ZINC000673213454   -0.1300
     26 C26       -10.1546    0.6511   64.8560 C.ar    1  ZINC000673213454   -0.1200
     27 C27       -11.1977    1.2933   64.2152 C.ar    1  ZINC000673213454   -0.1300
     28 C28       -11.4822    1.0010   62.8943 C.ar    1  ZINC000673213454   -0.0900
     29 C29       -10.9647   -1.7873   60.5625 C.3     1  ZINC000673213454    0.0700
     30 H30       -13.6630   -6.4604   56.2794 H       1  ZINC000673213454    0.0600
     31 H31       -15.2052   -5.6633   56.6726 H       1  ZINC000673213454    0.0600
     32 H32       -14.7593   -5.9500   54.9734 H       1  ZINC000673213454    0.0700
     33 H33       -11.5992   -4.6084   55.4529 H       1  ZINC000673213454    0.0800
     34 H34       -12.7128   -5.1706   54.1832 H       1  ZINC000673213454    0.0900
     35 H35       -14.2229   -3.6539   53.1706 H       1  ZINC000673213454    0.0800
     36 H36       -14.3122   -2.0215   53.9109 H       1  ZINC000673213454    0.0800
     37 H37       -13.7828   -2.2432   51.2636 H       1  ZINC000673213454    0.0900
     38 H38       -12.8559   -1.0643   52.2464 H       1  ZINC000673213454    0.0600
     39 H39       -10.5473   -2.2946   53.3563 H       1  ZINC000673213454    0.0600
     40 H40       -10.7800   -4.0569   53.1873 H       1  ZINC000673213454    0.0900
     41 H41       -12.7597   -4.6881   57.7935 H       1  ZINC000673213454    0.4100
     42 H42        -9.9976   -3.1013   58.0641 H       1  ZINC000673213454    0.0800
     43 H43       -11.1564   -2.1120   57.1515 H       1  ZINC000673213454    0.0900
     44 H44        -8.7402   -1.2188   58.7502 H       1  ZINC000673213454    0.0800
     45 H45        -9.1744   -0.8302   57.0687 H       1  ZINC000673213454    0.0900
     46 H46        -9.8245    1.1370   58.0700 H       1  ZINC000673213454    0.1000
     47 H47       -11.3289    0.2062   58.2896 H       1  ZINC000673213454    0.0500
     48 H48        -9.0950   -1.3136   62.3272 H       1  ZINC000673213454    0.1300
     49 H49        -8.5836   -0.7878   64.6778 H       1  ZINC000673213454    0.1200
     50 H50        -9.9307    0.8814   65.8871 H       1  ZINC000673213454    0.1200
     51 H51       -11.7886    2.0252   64.7457 H       1  ZINC000673213454    0.1200
     52 H52       -12.2970    1.5027   62.3937 H       1  ZINC000673213454    0.1300
     53 H53       -11.5819   -2.2913   61.3062 H       1  ZINC000673213454    0.1200
     54 H54        -9.9306   -2.1164   60.6657 H       1  ZINC000673213454    0.0800
@<TRIPOS>BOND
     1     1     2    1
     2     1    30    1
     3     1    31    1
     4     1    32    1
     5     2     3    1
     6     2     4    1
     7     2    11    1
     8     4     5    1
     9     4    33    1
    10     4    34    1
    11     5     6    1
    12     5    10    1
    13     5     7    1
    14     7     8    1
    15     7    35    1
    16     7    36    1
    17     8     9    1
    18     8    37    1
    19     8    38    1
    20     9    10    1
    21    10    39    1
    22    10    40    1
    23    11    12   am
    24    11    41    1
    25    12    13    2
    26    12    14    1
    27    14    15    2
    28    14    16   am
    29    16    29    1
    30    16    17    1
    31    17    18    1
    32    17    42    1
    33    17    43    1
    34    18    19    1
    35    18    44    1
    36    18    45    1
    37    19    20    1
    38    19    46    1
    39    19    47    1
    40    20    21    1
    41    21    22    1
    42    21    23    1
    43    21    29    1
    44    23    28   ar
    45    23    24   ar
    46    24    25   ar
    47    24    48    1
    48    25    26   ar
    49    25    49    1
    50    26    27   ar
    51    26    50    1
    52    27    28   ar
    53    27    51    1
    54    28    52    1
    55    29    53    1
    56    29    54    1
@<TRIPOS>SUBSTRUCTURE
     1 ZINC000673213454        1 TEMP              0 ****  ****    0 ROOT


##########                                Name:    ZINC000543020509
##########                DOCK_Rotatable_Bonds:                   5
##########                         Heavy_Atoms:                  26
##########                    Molecular_Weight:              366.81
##########                DOCK_Rotatable_Bonds:                   5
##########                       Formal_Charge:               -0.02
##########                     HBond_Acceptors:                   8
##########                        HBond_Donors:                   1
##########                         Heavy_Atoms:                  26
##########                          Grid_Score:          -32.669952
##########                     Grid_vdw_energy:          -31.865885
##########                      Grid_es_energy:           -0.804067
##########           Internal_energy_repulsive:           15.771521

@<TRIPOS>MOLECULE
ZINC000543020509
 41 43 1 0 0
SMALL
USER_CHARGES


@<TRIPOS>ATOM
      1 C1        -13.4990    1.6169   65.3030 C.3     1  ZINC000543020509    0.0800
      2 N2        -12.0985    1.8185   65.6831 N.pl3   1  ZINC000543020509   -0.6200
      3 C3        -11.7658    2.6659   66.8308 C.3     1  ZINC000543020509    0.0900
      4 C4        -11.0841    1.2049   64.9537 C.ar    1  ZINC000543020509    0.2500
      5 C5         -9.7460    1.3857   65.2994 C.ar    1  ZINC000543020509   -0.2200
      6 C6         -8.7645    0.7604   64.5527 C.ar    1  ZINC000543020509    0.1400
      7 N7         -9.0763    0.0000   63.5245 N.ar    1  ZINC000543020509   -0.5000
      8 C8        -10.3378   -0.2008   63.1585 C.ar    1  ZINC000543020509    0.1100
      9 C9        -10.6348   -1.0663   61.9936 C.2     1  ZINC000543020509    0.5900
     10 O10       -11.7878   -1.2889   61.6803 O.2     1  ZINC000543020509   -0.5000
     11 N11        -9.6266   -1.6069   61.2811 N.am    1  ZINC000543020509   -0.6200
     12 C12        -9.9073   -2.4231   60.1794 C.2     1  ZINC000543020509    0.3200
     13 N13       -10.7260   -2.1331   59.1954 N.2     1  ZINC000543020509   -0.3100
     14 N14       -10.7272   -3.2069   58.2958 N.pl3   1  ZINC000543020509   -0.3300
     15 C15       -11.4690   -3.2890   57.1148 C.ar    1  ZINC000543020509    0.2200
     16 C16       -12.2212   -4.4220   56.8421 C.ar    1  ZINC000543020509   -0.1300
     17 C17       -12.9544   -4.5020   55.6742 C.ar    1  ZINC000543020509   -0.0500
     18 C18       -12.9448   -3.4542   54.7674 C.ar    1  ZINC000543020509   -0.0600
     19 Cl19      -13.8713   -3.5694   53.3038 Cl      1  ZINC000543020509   -0.0500
     20 C20       -12.2023   -2.3193   55.0229 C.ar    1  ZINC000543020509   -0.0400
     21 C21       -11.4610   -2.2234   56.2023 C.ar    1  ZINC000543020509   -0.0200
     22 C22       -10.6884   -1.0487   56.4738 C.1     1  ZINC000543020509    0.2500
     23 N23       -10.0755   -0.1167   56.6891 N.1     1  ZINC000543020509   -0.3800
     24 C24        -9.8789   -4.1543   58.7745 C.2     1  ZINC000543020509    0.0700
     25 C25        -9.3566   -3.6923   59.9327 C.2     1  ZINC000543020509   -0.2400
     26 C26       -11.3816    0.3890   63.8622 C.ar    1  ZINC000543020509   -0.1800
     27 H27       -13.7961    2.3857   64.5896 H       1  ZINC000543020509    0.0600
     28 H28       -13.6136    0.6338   64.8464 H       1  ZINC000543020509    0.0700
     29 H29       -14.1291    1.6813   66.1901 H       1  ZINC000543020509    0.0700
     30 H30       -12.6828    3.0560   67.2725 H       1  ZINC000543020509    0.0800
     31 H31       -11.2270    2.0771   67.5732 H       1  ZINC000543020509    0.0600
     32 H32       -11.1400    3.4952   66.5009 H       1  ZINC000543020509    0.0600
     33 H33        -9.4787    2.0076   66.1409 H       1  ZINC000543020509    0.1400
     34 H34        -7.7265    0.8981   64.8170 H       1  ZINC000543020509    0.1700
     35 H35        -8.7064   -1.4301   61.5318 H       1  ZINC000543020509    0.4300
     36 H36       -12.2334   -5.2429   57.5438 H       1  ZINC000543020509    0.1500
     37 H37       -13.5381   -5.3865   55.4664 H       1  ZINC000543020509    0.1500
     38 H38       -12.1977   -1.5050   54.3136 H       1  ZINC000543020509    0.1500
     39 H39        -9.6583   -5.1044   58.3107 H       1  ZINC000543020509    0.1900
     40 H40        -8.6468   -4.2099   60.5607 H       1  ZINC000543020509    0.1800
     41 H41       -12.4064    0.2243   63.5636 H       1  ZINC000543020509    0.1500
@<TRIPOS>BOND
     1     1     2    1
     2     1    27    1
     3     1    28    1
     4     1    29    1
     5     2     3    1
     6     2     4    1
     7     3    30    1
     8     3    31    1
     9     3    32    1
    10     4    26   ar
    11     4     5   ar
    12     5     6   ar
    13     5    33    1
    14     6     7   ar
    15     6    34    1
    16     7     8   ar
    17     8     9    1
    18     8    26   ar
    19     9    10    2
    20     9    11   am
    21    11    12    1
    22    11    35    1
    23    12    25    1
    24    12    13    2
    25    13    14    1
    26    14    15    1
    27    14    24    1
    28    15    21   ar
    29    15    16   ar
    30    16    17   ar
    31    16    36    1
    32    17    18   ar
    33    17    37    1
    34    18    19    1
    35    18    20   ar
    36    20    21   ar
    37    20    38    1
    38    21    22    1
    39    22    23    3
    40    24    25    2
    41    24    39    1
    42    25    40    1
    43    26    41    1
@<TRIPOS>SUBSTRUCTURE
     1 ZINC000543020509        1 TEMP              0 ****  ****    0 ROOT


##########                                Name:    ZINC000291036115
##########                DOCK_Rotatable_Bonds:                   5
##########                         Heavy_Atoms:                  22
##########                    Molecular_Weight:             366.193
##########                DOCK_Rotatable_Bonds:                   5
##########                       Formal_Charge:                0.01
##########                     HBond_Acceptors:                   7
##########                        HBond_Donors:                   0
##########                         Heavy_Atoms:                  22
##########                          Grid_Score:          -32.653599
##########                     Grid_vdw_energy:          -34.087498
##########                      Grid_es_energy:            1.433900
##########           Internal_energy_repulsive:            9.988867

@<TRIPOS>MOLECULE
ZINC000291036115
 35 37 1 0 0
SMALL
USER_CHARGES


@<TRIPOS>ATOM
      1 C1         -2.1948    2.8304   44.9854 C.3     1  <0>        -0.1500
      2 C2         -1.4554    1.7439   45.7689 C.3     1  <0>        -0.0400
      3 H3         -0.3811    1.8596   45.6250 H       1  <0>         0.0900
      4 C4         -1.8919    0.3663   45.2665 C.3     1  <0>        -0.0200
      5 C5         -1.2925    0.1144   43.9070 C.2     1  <0>         0.1900
      6 N6         -0.0572    0.3587   43.5407 N.2     1  <0>        -0.4500
      7 C7          0.0206   -0.0223   42.2532 C.2     1  <0>         0.1500
      8 C8          1.2408    0.0557   41.3722 C.3     1  <0>         0.2300
      9 N9          0.8291    0.3068   39.9888 N.pl3   1  <0>        -0.3900
     10 C10         1.3755    1.1877   39.1329 C.2     1  <0>         0.2600
     11 N11         0.7259    1.1093   37.9999 N.2     1  <0>        -0.5400
     12 C12        -0.2376    0.1938   38.0938 C.2     1  <0>         0.2000
     13 N13        -0.2109   -0.3292   39.2915 N.2     1  <0>        -0.3100
     14 N14        -1.1494   -0.4706   41.9085 N.2     1  <0>        -0.3600
     15 O15        -1.9165   -0.4060   42.8460 O.3     1  <0>         0.0900
     16 C16        -1.7824    1.8709   47.2345 C.ar    1  <0>        -0.0900
     17 C17        -3.1007    1.8741   47.6501 C.ar    1  <0>        -0.0700
     18 C18        -3.4025    1.9900   48.9940 C.ar    1  <0>        -0.1400
     19 C19        -2.3839    2.1030   49.9244 C.ar    1  <0>         0.1300
     20 F20        -2.6778    2.2159   51.2382 F       1  <0>        -0.1200
     21 C21        -1.0626    2.0997   49.5071 C.ar    1  <0>        -0.1300
     22 Br22        0.3308    2.2533   50.7763 Br      1  <0>        -0.0200
     23 C23        -0.7634    1.9783   48.1628 C.ar    1  <0>        -0.0500
     24 H24        -1.9582    2.7386   43.9254 H       1  <0>         0.0600
     25 H25        -3.2689    2.7148   45.1294 H       1  <0>         0.0700
     26 H26        -1.8838    3.8119   45.3434 H       1  <0>         0.0700
     27 H27        -1.5491   -0.3995   45.9623 H       1  <0>         0.1200
     28 H28        -2.9791    0.3330   45.1960 H       1  <0>         0.1100
     29 H29         1.8837    0.8672   41.7129 H       1  <0>         0.1300
     30 H30         1.7867   -0.8863   41.4235 H       1  <0>         0.1200
     31 H31         2.2056    1.8457   39.3439 H       1  <0>         0.2200
     32 H32        -0.9261   -0.0756   37.3066 H       1  <0>         0.2200
     33 H33        -3.8956    1.7864   46.9242 H       1  <0>         0.1400
     34 H34        -4.4326    1.9928   49.3181 H       1  <0>         0.1500
     35 H35         0.2662    1.9758   47.8370 H       1  <0>         0.1400
@<TRIPOS>BOND
     1     1     2    1
     2     1    24    1
     3     1    25    1
     4     1    26    1
     5     2     3    1
     6     2     4    1
     7     2    16    1
     8     4     5    1
     9     4    27    1
    10     4    28    1
    11     5    15    1
    12     5     6    2
    13     6     7    1
    14     7     8    1
    15     7    14    2
    16     8     9    1
    17     8    29    1
    18     8    30    1
    19     9    13    1
    20     9    10    1
    21    10    11    2
    22    10    31    1
    23    11    12    1
    24    12    13    2
    25    12    32    1
    26    14    15    1
    27    16    23   ar
    28    16    17   ar
    29    17    18   ar
    30    17    33    1
    31    18    19   ar
    32    18    34    1
    33    19    20    1
    34    19    21   ar
    35    21    22    1
    36    21    23   ar
    37    23    35    1
@<TRIPOS>SUBSTRUCTURE
     1 <0>         1 TEMP              0 ****  ****    0 ROOT


##########                                Name:    ZINC001312809190
##########                DOCK_Rotatable_Bonds:                   6
##########                         Heavy_Atoms:                  29
##########                    Molecular_Weight:             395.501
##########                DOCK_Rotatable_Bonds:                   6
##########                       Formal_Charge:           0.0199995
##########                     HBond_Acceptors:                   6
##########                        HBond_Donors:                   1
##########                         Heavy_Atoms:                  29
##########                          Grid_Score:          -32.652363
##########                     Grid_vdw_energy:          -31.741590
##########                      Grid_es_energy:           -0.910772
##########           Internal_energy_repulsive:           25.856646

@<TRIPOS>MOLECULE
ZINC001312809190
 58 61 1 0 0
SMALL
USER_CHARGES


@<TRIPOS>ATOM
      1 C1        -13.7660    0.1529   51.4646 C.3     1  ZINC001312809190    0.0300
      2 O2        -14.2414   -0.7733   52.4435 O.3     1  ZINC001312809190   -0.3200
      3 C3        -13.3545   -1.6950   52.9027 C.ar    1  ZINC001312809190    0.1300
      4 C4        -12.0541   -1.7084   52.4203 C.ar    1  ZINC001312809190   -0.2100
      5 C5        -11.1542   -2.6462   52.8891 C.ar    1  ZINC001312809190   -0.0800
      6 C6        -11.5491   -3.5710   53.8377 C.ar    1  ZINC001312809190   -0.1300
      7 C7        -12.8452   -3.5600   54.3199 C.ar    1  ZINC001312809190   -0.0500
      8 C8        -13.2724   -4.5699   55.3537 C.3     1  ZINC001312809190    0.1200
      9 H9        -12.3915   -5.0575   55.7711 H       1  ZINC001312809190    0.0500
     10 C10       -14.1743   -5.6188   54.6998 C.3     1  ZINC001312809190   -0.1400
     11 N11       -14.0104   -3.8900   56.4267 N.3     1  ZINC001312809190   -0.5300
     12 C12       -13.2391   -2.7602   56.9619 C.3     1  ZINC001312809190    0.0300
     13 C13       -14.1103   -1.9715   57.9454 C.3     1  ZINC001312809190    0.1400
     14 N14       -14.6329   -2.9025   58.9570 N.am    1  ZINC001312809190   -0.6300
     15 C15       -14.5049   -2.6380   60.2723 C.2     1  ZINC001312809190    0.7100
     16 O16       -14.9429   -3.4190   61.0949 O.2     1  ZINC001312809190   -0.5800
     17 N17       -13.8914   -1.5078   60.6758 N.am    1  ZINC001312809190   -0.7300
     18 C18       -13.7524   -1.2203   62.1055 C.3     1  ZINC001312809190    0.1800
     19 H19       -14.0362   -2.0858   62.7043 H       1  ZINC001312809190    0.1200
     20 C20       -12.3409   -0.7734   62.4338 C.ar    1  ZINC001312809190   -0.1900
     21 C21       -11.1073   -1.2722   62.0795 C.ar    1  ZINC001312809190   -0.0500
     22 C22        -9.9553   -0.6478   62.5247 C.ar    1  ZINC001312809190   -0.1500
     23 C23       -10.0487    0.4757   63.3246 C.ar    1  ZINC001312809190   -0.0800
     24 C24       -11.2838    0.9750   63.6837 C.ar    1  ZINC001312809190   -0.1400
     25 C25       -12.4477    0.3508   63.2428 C.ar    1  ZINC001312809190    0.1100
     26 O26       -13.7508    0.6593   63.4884 O.3     1  ZINC001312809190   -0.2900
     27 C27       -14.5829    0.0230   62.5027 C.3     1  ZINC001312809190    0.0800
     28 H28       -14.7331    0.6772   61.6439 H       1  ZINC001312809190    0.0900
     29 C29       -15.9257   -0.3872   63.1103 C.3     1  ZINC001312809190   -0.1500
     30 C30       -15.2993   -4.1297   58.4951 C.3     1  ZINC001312809190    0.1200
     31 C31       -14.3813   -4.8333   57.4899 C.3     1  ZINC001312809190    0.0400
     32 C32       -13.7468   -2.6206   53.8590 C.ar    1  ZINC001312809190   -0.1500
     33 H33       -14.5720    0.8313   51.1847 H       1  ZINC001312809190    0.1000
     34 H34       -12.9364    0.7257   51.8790 H       1  ZINC001312809190    0.0600
     35 H35       -13.4271   -0.3918   50.5834 H       1  ZINC001312809190    0.0600
     36 H36       -11.7453   -0.9867   51.6786 H       1  ZINC001312809190    0.1300
     37 H37       -10.1416   -2.6571   52.5138 H       1  ZINC001312809190    0.1300
     38 H38       -10.8444   -4.3035   54.2027 H       1  ZINC001312809190    0.1300
     39 H39       -15.0553   -5.1311   54.2824 H       1  ZINC001312809190    0.0700
     40 H40       -13.6268   -6.1232   53.9036 H       1  ZINC001312809190    0.0600
     41 H41       -14.4833   -6.3492   55.4476 H       1  ZINC001312809190    0.0600
     42 H42       -12.3555   -3.1351   57.4786 H       1  ZINC001312809190    0.0400
     43 H43       -12.9332   -2.1084   56.1435 H       1  ZINC001312809190    0.1000
     44 H44       -13.5098   -1.2024   58.4311 H       1  ZINC001312809190    0.1000
     45 H45       -14.9396   -1.5089   57.4103 H       1  ZINC001312809190    0.0700
     46 H46       -13.5419   -0.8849   60.0196 H       1  ZINC001312809190    0.4000
     47 H47       -11.0389   -2.1505   61.4547 H       1  ZINC001312809190    0.1200
     48 H48        -8.9866   -1.0373   62.2484 H       1  ZINC001312809190    0.1300
     49 H49        -9.1503    0.9651   63.6705 H       1  ZINC001312809190    0.1300
     50 H50       -11.3480    1.8530   64.3093 H       1  ZINC001312809190    0.1300
     51 H51       -16.4511    0.5001   63.4634 H       1  ZINC001312809190    0.0800
     52 H52       -16.5286   -0.8895   62.3537 H       1  ZINC001312809190    0.0800
     53 H53       -15.7543   -1.0648   63.9469 H       1  ZINC001312809190    0.0700
     54 H54       -15.4849   -4.7873   59.3442 H       1  ZINC001312809190    0.0800
     55 H55       -16.2429   -3.8745   58.0128 H       1  ZINC001312809190    0.0800
     56 H56       -14.9038   -5.6851   57.0546 H       1  ZINC001312809190    0.0900
     57 H57       -13.4819   -5.1794   57.9992 H       1  ZINC001312809190    0.0400
     58 H58       -14.7588   -2.6123   54.2361 H       1  ZINC001312809190    0.1300
@<TRIPOS>BOND
     1     1     2    1
     2     1    33    1
     3     1    34    1
     4     1    35    1
     5     2     3    1
     6     3    32   ar
     7     3     4   ar
     8     4     5   ar
     9     4    36    1
    10     5     6   ar
    11     5    37    1
    12     6     7   ar
    13     6    38    1
    14     7     8    1
    15     7    32   ar
    16     8     9    1
    17     8    10    1
    18     8    11    1
    19    10    39    1
    20    10    40    1
    21    10    41    1
    22    11    31    1
    23    11    12    1
    24    12    13    1
    25    12    42    1
    26    12    43    1
    27    13    14    1
    28    13    44    1
    29    13    45    1
    30    14    15   am
    31    14    30    1
    32    15    16    2
    33    15    17   am
    34    17    18    1
    35    17    46    1
    36    18    19    1
    37    18    27    1
    38    18    20    1
    39    20    25   ar
    40    20    21   ar
    41    21    22   ar
    42    21    47    1
    43    22    23   ar
    44    22    48    1
    45    23    24   ar
    46    23    49    1
    47    24    25   ar
    48    24    50    1
    49    25    26    1
    50    26    27    1
    51    27    28    1
    52    27    29    1
    53    29    51    1
    54    29    52    1
    55    29    53    1
    56    30    31    1
    57    30    54    1
    58    30    55    1
    59    31    56    1
    60    31    57    1
    61    32    58    1
@<TRIPOS>SUBSTRUCTURE
     1 ZINC001312809190        1 TEMP              0 ****  ****    0 ROOT


##########                                Name:    ZINC001340305486
##########                DOCK_Rotatable_Bonds:                   8
##########                         Heavy_Atoms:                  27
##########                    Molecular_Weight:             378.431
##########                DOCK_Rotatable_Bonds:                   8
##########                       Formal_Charge:          0.00999955
##########                     HBond_Acceptors:                  10
##########                        HBond_Donors:                   2
##########                         Heavy_Atoms:                  27
##########                          Grid_Score:          -32.631443
##########                     Grid_vdw_energy:          -31.359184
##########                      Grid_es_energy:           -1.272260
##########           Internal_energy_repulsive:            9.414536

@<TRIPOS>MOLECULE
ZINC001340305486
 53 55 1 0 0
SMALL
USER_CHARGES


@<TRIPOS>ATOM
      1 C1         -9.8686    5.1727   50.5715 C.3     1  ZINC001340305486    0.0900
      2 N2         -9.7588    3.7563   50.9289 N.am    1  ZINC001340305486   -0.7300
      3 C3        -10.4797    3.2624   51.9550 C.2     1  ZINC001340305486    0.5200
      4 O4        -11.2182    3.9909   52.5833 O.2     1  ZINC001340305486   -0.5100
      5 C5        -10.3682    1.8049   52.3216 C.3     1  ZINC001340305486    0.0600
      6 H6        -10.0784    1.2296   51.4424 H       1  ZINC001340305486    0.0900
      7 C7        -11.7206    1.3023   52.8395 C.3     1  ZINC001340305486    0.0900
      8 N8        -11.5394   -0.0608   53.3636 N.am    1  ZINC001340305486   -0.5800
      9 C9        -12.3515   -1.0655   52.9795 C.2     1  ZINC001340305486    0.5100
     10 O10       -13.2480   -0.8528   52.1896 O.2     1  ZINC001340305486   -0.5200
     11 C11       -12.1480   -2.4415   53.5260 C.2     1  ZINC001340305486    0.5200
     12 O12       -11.4556   -3.2367   52.9252 O.2     1  ZINC001340305486   -0.5000
     13 N13       -12.7334   -2.7992   54.6860 N.am    1  ZINC001340305486   -0.6900
     14 C14       -12.5352   -4.1486   55.2209 C.3     1  ZINC001340305486    0.1200
     15 C15       -12.9751   -4.1862   56.6858 C.3     1  ZINC001340305486   -0.0400
     16 C16       -11.7667   -4.3644   57.5686 C.2     1  ZINC001340305486    0.1700
     17 N17       -11.0090   -5.4266   57.6420 N.2     1  ZINC001340305486   -0.2800
     18 N18       -10.0643   -5.2278   58.4938 N.2     1  ZINC001340305486   -0.2900
     19 C19       -10.1752   -4.0310   58.9959 C.2     1  ZINC001340305486    0.1900
     20 C20        -9.2666   -3.3797   60.0061 C.3     1  ZINC001340305486   -0.0400
     21 C21       -10.1189   -2.7201   61.0943 C.3     1  ZINC001340305486   -0.1200
     22 C22       -10.4684   -1.2950   60.6761 C.3     1  ZINC001340305486   -0.1300
     23 C23       -10.6369   -1.2081   59.1600 C.3     1  ZINC001340305486   -0.1400
     24 C24       -11.7851   -2.1179   58.7144 C.3     1  ZINC001340305486    0.1000
     25 N25       -11.2599   -3.4535   58.4287 N.pl3   1  ZINC001340305486   -0.4600
     26 C26       -10.4456   -0.2944   54.3199 C.3     1  ZINC001340305486    0.0200
     27 C27        -9.1553    0.2861   53.7298 C.3     1  ZINC001340305486    0.0500
     28 O28        -9.3821    1.6438   53.3440 O.3     1  ZINC001340305486   -0.3500
     29 H29       -10.9000    5.4007   50.3024 H       1  ZINC001340305486    0.0600
     30 H30        -9.5709    5.7862   51.4218 H       1  ZINC001340305486    0.0600
     31 H31        -9.2167    5.3852   49.7241 H       1  ZINC001340305486    0.0800
     32 H32        -9.1673    3.1739   50.4272 H       1  ZINC001340305486    0.4000
     33 H33       -12.0755    1.9574   53.6352 H       1  ZINC001340305486    0.0900
     34 H34       -12.4440    1.2890   52.0242 H       1  ZINC001340305486    0.1100
     35 H35       -13.2858   -2.1632   55.1668 H       1  ZINC001340305486    0.4200
     36 H36       -13.1290   -4.8586   54.6449 H       1  ZINC001340305486    0.0900
     37 H37       -11.4809   -4.4160   55.1512 H       1  ZINC001340305486    0.0800
     38 H38       -13.4755   -3.2516   56.9390 H       1  ZINC001340305486    0.0900
     39 H39       -13.6619   -5.0189   56.8377 H       1  ZINC001340305486    0.1100
     40 H40        -8.6213   -4.1342   60.4558 H       1  ZINC001340305486    0.1000
     41 H41        -8.6560   -2.6233   59.5128 H       1  ZINC001340305486    0.0900
     42 H42       -11.0358   -3.2926   61.2341 H       1  ZINC001340305486    0.0600
     43 H43        -9.5595   -2.6970   62.0295 H       1  ZINC001340305486    0.0800
     44 H44       -11.3988   -0.9963   61.1592 H       1  ZINC001340305486    0.0700
     45 H45        -9.6696   -0.6223   60.9884 H       1  ZINC001340305486    0.0800
     46 H46       -10.8597   -0.1789   58.8783 H       1  ZINC001340305486    0.0900
     47 H47        -9.7140   -1.5245   58.6739 H       1  ZINC001340305486    0.0800
     48 H48       -12.5301   -2.1782   59.5078 H       1  ZINC001340305486    0.0900
     49 H49       -12.2444   -1.7096   57.8142 H       1  ZINC001340305486    0.1000
     50 H50       -10.6722    0.2000   55.2646 H       1  ZINC001340305486    0.0800
     51 H51       -10.3247   -1.3650   54.4849 H       1  ZINC001340305486    0.1700
     52 H52        -8.3634    0.2476   54.4778 H       1  ZINC001340305486    0.1200
     53 H53        -8.8607   -0.2955   52.8562 H       1  ZINC001340305486    0.0600
@<TRIPOS>BOND
     1     1     2    1
     2     1    29    1
     3     1    30    1
     4     1    31    1
     5     2     3   am
     6     2    32    1
     7     3     4    2
     8     3     5    1
     9     5     6    1
    10     5    28    1
    11     5     7    1
    12     7     8    1
    13     7    33    1
    14     7    34    1
    15     8     9   am
    16     8    26    1
    17     9    10    2
    18     9    11    1
    19    11    12    2
    20    11    13   am
    21    13    14    1
    22    13    35    1
    23    14    15    1
    24    14    36    1
    25    14    37    1
    26    15    16    1
    27    15    38    1
    28    15    39    1
    29    16    25    1
    30    16    17    2
    31    17    18    1
    32    18    19    2
    33    19    25    1
    34    19    20    1
    35    20    21    1
    36    20    40    1
    37    20    41    1
    38    21    22    1
    39    21    42    1
    40    21    43    1
    41    22    23    1
    42    22    44    1
    43    22    45    1
    44    23    24    1
    45    23    46    1
    46    23    47    1
    47    24    25    1
    48    24    48    1
    49    24    49    1
    50    26    27    1
    51    26    50    1
    52    26    51    1
    53    27    28    1
    54    27    52    1
    55    27    53    1
@<TRIPOS>SUBSTRUCTURE
     1 ZINC001340305486        1 TEMP              0 ****  ****    0 ROOT


##########                                Name:    ZINC000846412382
##########                DOCK_Rotatable_Bonds:                   6
##########                         Heavy_Atoms:                  26
##########                    Molecular_Weight:             370.475
##########                DOCK_Rotatable_Bonds:                   6
##########                       Formal_Charge:               -0.03
##########                     HBond_Acceptors:                   7
##########                        HBond_Donors:                   4
##########                         Heavy_Atoms:                  26
##########                          Grid_Score:          -32.621620
##########                     Grid_vdw_energy:          -32.444187
##########                      Grid_es_energy:           -0.177434
##########           Internal_energy_repulsive:           22.318565

@<TRIPOS>MOLECULE
ZINC000846412382
 48 50 1 0 0
SMALL
USER_CHARGES


@<TRIPOS>ATOM
      1 C1        -13.8654   -2.7892   60.1632 C.3     1  ZINC000846412382   -0.1400
      2 C2        -12.4171   -2.3786   60.2331 C.2     1  ZINC000846412382    0.0300
      3 C3        -11.5093   -2.8084   59.3476 C.2     1  ZINC000846412382   -0.2700
      4 C4        -11.7986   -3.7098   58.2256 C.2     1  ZINC000846412382    0.6000
      5 O5        -11.1323   -4.7151   58.0654 O.2     1  ZINC000846412382   -0.5200
      6 N6        -12.8023   -3.4236   57.3729 N.am    1  ZINC000846412382   -0.7100
      7 C7        -13.0900   -4.3223   56.2522 C.3     1  ZINC000846412382    0.1200
      8 H8        -12.1726   -4.8237   55.9438 H       1  ZINC000846412382    0.1000
      9 C9        -14.1204   -5.3663   56.6871 C.3     1  ZINC000846412382   -0.1700
     10 C10       -13.6477   -3.5129   55.0797 C.3     1  ZINC000846412382    0.1700
     11 C11       -14.6610   -2.4919   55.6009 C.3     1  ZINC000846412382   -0.1400
     12 O12       -14.2909   -4.3936   54.1561 O.3     1  ZINC000846412382   -0.5500
     13 C13       -12.5207   -2.7926   54.3853 C.ar    1  ZINC000846412382   -0.1200
     14 C14       -11.9874   -3.3063   53.2180 C.ar    1  ZINC000846412382   -0.1100
     15 C15       -10.9536   -2.6455   52.5811 C.ar    1  ZINC000846412382   -0.1200
     16 C16       -10.4537   -1.4708   53.1111 C.ar    1  ZINC000846412382   -0.1200
     17 C17       -10.9877   -0.9567   54.2780 C.ar    1  ZINC000846412382   -0.1200
     18 C18       -12.0242   -1.6152   54.9126 C.ar    1  ZINC000846412382   -0.1000
     19 S19        -9.9256   -2.1450   59.7131 S.3     1  ZINC000846412382    0.2000
     20 C20       -10.5571   -1.2731   61.1034 C.ar    1  ZINC000846412382    0.1400
     21 N21        -9.9574   -0.4689   61.9885 N.ar    1  ZINC000846412382   -0.5300
     22 C22       -10.6347    0.0871   62.9668 C.ar    1  ZINC000846412382    0.3900
     23 C23        -9.9097    0.9852   63.9358 C.3     1  ZINC000846412382   -0.0900
     24 N24       -11.9297   -0.1140   63.1295 N.ar    1  ZINC000846412382   -0.5800
     25 C25       -12.6136   -0.8935   62.3059 C.ar    1  ZINC000846412382    0.5100
     26 N26       -13.9668   -1.0926   62.4908 N.pl3   1  ZINC000846412382   -0.8300
     27 C27       -11.9321   -1.5185   61.2236 C.ar    1  ZINC000846412382   -0.2500
     28 H28       -14.4325   -2.0304   59.6240 H       1  ZINC000846412382    0.0800
     29 H29       -13.9480   -3.7430   59.6423 H       1  ZINC000846412382    0.1100
     30 H30       -14.2633   -2.8909   61.1730 H       1  ZINC000846412382    0.0700
     31 H31       -13.3343   -2.6227   57.5012 H       1  ZINC000846412382    0.4000
     32 H32       -15.0378   -4.8648   56.9954 H       1  ZINC000846412382    0.0600
     33 H33       -14.3344   -6.0349   55.8533 H       1  ZINC000846412382    0.0800
     34 H34       -13.7231   -5.9428   57.5225 H       1  ZINC000846412382    0.0700
     35 H35       -14.1705   -1.8202   56.3053 H       1  ZINC000846412382    0.0700
     36 H36       -15.0584   -1.9154   54.7656 H       1  ZINC000846412382    0.0700
     37 H37       -15.4762   -3.0130   56.1031 H       1  ZINC000846412382    0.0700
     38 H38       -14.6495   -3.9504   53.3749 H       1  ZINC000846412382    0.3800
     39 H39       -12.3780   -4.2240   52.8039 H       1  ZINC000846412382    0.1300
     40 H40       -10.5364   -3.0472   51.6695 H       1  ZINC000846412382    0.1200
     41 H41        -9.6455   -0.9550   52.6139 H       1  ZINC000846412382    0.1200
     42 H42       -10.5968   -0.0391   54.6923 H       1  ZINC000846412382    0.1200
     43 H43       -12.4414   -1.2135   55.8242 H       1  ZINC000846412382    0.1300
     44 H44        -9.9363    2.0116   63.5697 H       1  ZINC000846412382    0.0900
     45 H45       -10.3946    0.9345   64.9107 H       1  ZINC000846412382    0.0900
     46 H46        -8.8737    0.6591   64.0280 H       1  ZINC000846412382    0.0900
     47 H47       -14.3638   -0.9456   63.3636 H       1  ZINC000846412382    0.4100
     48 H48       -14.5207   -1.3794   61.7480 H       1  ZINC000846412382    0.4200
@<TRIPOS>BOND
     1     1     2    1
     2     1    28    1
     3     1    29    1
     4     1    30    1
     5     2    27    1
     6     2     3    2
     7     3     4    1
     8     3    19    1
     9     4     5    2
    10     4     6   am
    11     6     7    1
    12     6    31    1
    13     7     8    1
    14     7     9    1
    15     7    10    1
    16     9    32    1
    17     9    33    1
    18     9    34    1
    19    10    11    1
    20    10    12    1
    21    10    13    1
    22    11    35    1
    23    11    36    1
    24    11    37    1
    25    12    38    1
    26    13    18   ar
    27    13    14   ar
    28    14    15   ar
    29    14    39    1
    30    15    16   ar
    31    15    40    1
    32    16    17   ar
    33    16    41    1
    34    17    18   ar
    35    17    42    1
    36    18    43    1
    37    19    20    1
    38    20    27   ar
    39    20    21   ar
    40    21    22   ar
    41    22    23    1
    42    22    24   ar
    43    23    44    1
    44    23    45    1
    45    23    46    1
    46    24    25   ar
    47    25    26    1
    48    25    27   ar
    49    26    47    1
    50    26    48    1
@<TRIPOS>SUBSTRUCTURE
     1 ZINC000846412382        1 TEMP              0 ****  ****    0 ROOT


##########                                Name:    ZINC000470948647
##########                DOCK_Rotatable_Bonds:                   6
##########                         Heavy_Atoms:                  29
##########                    Molecular_Weight:             412.556
##########                DOCK_Rotatable_Bonds:                   6
##########                       Formal_Charge:           0.0100001
##########                     HBond_Acceptors:                   7
##########                        HBond_Donors:                   1
##########                         Heavy_Atoms:                  29
##########                          Grid_Score:          -32.615753
##########                     Grid_vdw_energy:          -31.840578
##########                      Grid_es_energy:           -0.775174
##########           Internal_energy_repulsive:           20.572384

@<TRIPOS>MOLECULE
ZINC000470948647
 57 60 1 0 0
SMALL
USER_CHARGES


@<TRIPOS>ATOM
      1 C1        -12.1722   -0.0864   62.5660 C.3     1  ZINC000470948647   -0.1100
      2 C2        -12.0871   -0.9797   61.3554 C.ar    1  ZINC000470948647   -0.1000
      3 C3        -13.1330   -1.8315   61.0517 C.ar    1  ZINC000470948647   -0.1100
      4 C4        -13.0581   -2.6516   59.9427 C.ar    1  ZINC000470948647   -0.1100
      5 C5        -11.9311   -2.6198   59.1324 C.ar    1  ZINC000470948647    0.1400
      6 N6        -11.8523   -3.4490   58.0081 N.am    1  ZINC000470948647   -0.6700
      7 C7        -12.5617   -3.1526   56.9011 C.2     1  ZINC000470948647    0.5100
      8 O8        -13.2684   -2.1670   56.8795 O.2     1  ZINC000470948647   -0.4800
      9 C9        -12.4768   -4.0456   55.6901 C.3     1  ZINC000470948647    0.1200
     10 H10       -11.4537   -4.4093   55.5951 H       1  ZINC000470948647    0.1200
     11 C11       -13.4169   -5.2548   55.8976 C.3     1  ZINC000470948647   -0.0700
     12 S12       -14.9091   -4.7179   54.9607 S.3     1  ZINC000470948647   -0.2500
     13 C13       -13.9410   -3.7692   53.7152 C.3     1  ZINC000470948647    0.1600
     14 N14       -12.8071   -3.2638   54.5083 N.am    1  ZINC000470948647   -0.6000
     15 C15       -12.1205   -2.1564   54.1634 C.2     1  ZINC000470948647    0.6300
     16 O16       -11.1908   -1.7792   54.8499 O.2     1  ZINC000470948647   -0.5100
     17 C17       -12.4976   -1.4012   52.9513 C.2     1  ZINC000470948647   -0.0100
     18 N18       -13.0896   -1.8857   51.8778 N.2     1  ZINC000470948647   -0.2700
     19 N19       -13.2696   -0.9518   51.0143 N.pl3   1  ZINC000470948647   -0.2700
     20 C20       -13.9002   -1.1321   49.7042 C.3     1  ZINC000470948647    0.1500
     21 C21       -15.1455   -2.0083   49.8538 C.3     1  ZINC000470948647   -0.1300
     22 C22       -15.8040   -2.1965   48.4856 C.3     1  ZINC000470948647   -0.1200
     23 C23       -16.2049   -0.8325   47.9205 C.3     1  ZINC000470948647   -0.1300
     24 C24       -14.9596    0.0437   47.7709 C.3     1  ZINC000470948647   -0.1200
     25 C25       -14.3011    0.2320   49.1391 C.3     1  ZINC000470948647   -0.1300
     26 C26       -12.7943    0.2201   51.4878 C.2     1  ZINC000470948647   -0.0100
     27 C27       -12.2977   -0.0189   52.7242 C.2     1  ZINC000470948647   -0.1700
     28 C28       -10.8822   -1.7627   59.4399 C.ar    1  ZINC000470948647   -0.1100
     29 C29        -9.6574   -1.7246   58.5629 C.3     1  ZINC000470948647   -0.1100
     30 C30       -10.9654   -0.9418   60.5472 C.ar    1  ZINC000470948647   -0.1000
     31 H31       -12.6296    0.8626   62.2858 H       1  ZINC000470948647    0.0700
     32 H32       -12.7783   -0.5696   63.3323 H       1  ZINC000470948647    0.0700
     33 H33       -11.1703    0.0942   62.9554 H       1  ZINC000470948647    0.0700
     34 H34       -14.0094   -1.8558   61.6823 H       1  ZINC000470948647    0.1200
     35 H35       -13.8752   -3.3173   59.7065 H       1  ZINC000470948647    0.1400
     36 H36       -11.2870   -4.2372   58.0253 H       1  ZINC000470948647    0.4100
     37 H37       -12.9897   -6.1610   55.4679 H       1  ZINC000470948647    0.1200
     38 H38       -13.6470   -5.3952   56.9537 H       1  ZINC000470948647    0.1200
     39 H39       -13.5941   -4.4234   52.9153 H       1  ZINC000470948647    0.1000
     40 H40       -14.5301   -2.9447   53.3138 H       1  ZINC000470948647    0.1400
     41 H41       -13.1964   -1.6139   49.0255 H       1  ZINC000470948647    0.1100
     42 H42       -14.8599   -2.9800   50.2565 H       1  ZINC000470948647    0.0800
     43 H43       -15.8493   -1.5264   50.5326 H       1  ZINC000470948647    0.0800
     44 H44       -15.1003   -2.6784   47.8070 H       1  ZINC000470948647    0.0700
     45 H45       -16.6912   -2.8207   48.5923 H       1  ZINC000470948647    0.0800
     46 H46       -16.6740   -0.9666   46.9459 H       1  ZINC000470948647    0.0700
     47 H47       -16.9087   -0.3506   48.5993 H       1  ZINC000470948647    0.0700
     48 H48       -14.2558   -0.4382   47.0923 H       1  ZINC000470948647    0.0700
     49 H49       -15.2453    1.0155   47.3684 H       1  ZINC000470948647    0.0700
     50 H50       -15.0049    0.7138   49.8179 H       1  ZINC000470948647    0.0700
     51 H51       -13.4139    0.8561   49.0325 H       1  ZINC000470948647    0.0700
     52 H52       -12.8116    1.1716   50.9772 H       1  ZINC000470948647    0.1800
     53 H53       -11.8389    0.6938   53.3933 H       1  ZINC000470948647    0.1600
     54 H54        -9.7950   -0.9800   57.7788 H       1  ZINC000470948647    0.0700
     55 H55        -8.7876   -1.4616   59.1648 H       1  ZINC000470948647    0.0700
     56 H56        -9.5037   -2.7043   58.1106 H       1  ZINC000470948647    0.0600
     57 H57       -10.1503   -0.2750   60.7867 H       1  ZINC000470948647    0.1300
@<TRIPOS>BOND
     1     1     2    1
     2     1    31    1
     3     1    32    1
     4     1    33    1
     5     2    30   ar
     6     2     3   ar
     7     3     4   ar
     8     3    34    1
     9     4     5   ar
    10     4    35    1
    11     5     6    1
    12     5    28   ar
    13     6     7   am
    14     6    36    1
    15     7     8    2
    16     7     9    1
    17     9    10    1
    18     9    14    1
    19     9    11    1
    20    11    12    1
    21    11    37    1
    22    11    38    1
    23    12    13    1
    24    13    14    1
    25    13    39    1
    26    13    40    1
    27    14    15   am
    28    15    16    2
    29    15    17    1
    30    17    27    1
    31    17    18    2
    32    18    19    1
    33    19    20    1
    34    19    26    1
    35    20    25    1
    36    20    21    1
    37    20    41    1
    38    21    22    1
    39    21    42    1
    40    21    43    1
    41    22    23    1
    42    22    44    1
    43    22    45    1
    44    23    24    1
    45    23    46    1
    46    23    47    1
    47    24    25    1
    48    24    48    1
    49    24    49    1
    50    25    50    1
    51    25    51    1
    52    26    27    2
    53    26    52    1
    54    27    53    1
    55    28    29    1
    56    28    30   ar
    57    29    54    1
    58    29    55    1
    59    29    56    1
    60    30    57    1
@<TRIPOS>SUBSTRUCTURE
     1 ZINC000470948647        1 TEMP              0 ****  ****    0 ROOT


##########                                Name:    ZINC001011676549
##########                DOCK_Rotatable_Bonds:                   6
##########                         Heavy_Atoms:                  24
##########                    Molecular_Weight:             330.387
##########                DOCK_Rotatable_Bonds:                   6
##########                       Formal_Charge:        -1.49012e-07
##########                     HBond_Acceptors:                   7
##########                        HBond_Donors:                   1
##########                         Heavy_Atoms:                  24
##########                          Grid_Score:          -32.605438
##########                     Grid_vdw_energy:          -31.955681
##########                      Grid_es_energy:           -0.649757
##########           Internal_energy_repulsive:           21.337584

@<TRIPOS>MOLECULE
ZINC001011676549
 46 48 1 0 0
SMALL
USER_CHARGES


@<TRIPOS>ATOM
      1 C1        -12.6187   -2.4846   58.6465 C.3     1  ZINC001011676549   -0.1700
      2 C2        -11.1305   -2.6209   58.3187 C.3     1  ZINC001011676549    0.1300
      3 H3        -10.9296   -2.2089   57.3298 H       1  ZINC001011676549    0.0900
      4 C4        -10.2896   -1.8774   59.3778 C.3     1  ZINC001011676549    0.1400
      5 H5         -9.4118   -1.4198   58.9215 H       1  ZINC001011676549    0.1100
      6 N6        -11.0982   -0.8688   60.0671 N.am    1  ZINC001011676549   -0.7200
      7 C7        -10.8442    0.4415   59.8801 C.2     1  ZINC001011676549    0.5200
      8 O8         -9.9453    0.7857   59.1423 O.2     1  ZINC001011676549   -0.5300
      9 C9        -11.6772    1.4790   60.5878 C.3     1  ZINC001011676549   -0.0900
     10 C10       -11.6306    1.2324   62.0738 C.ar    1  ZINC001011676549   -0.1800
     11 C11       -12.7307    1.5017   62.8726 C.ar    1  ZINC001011676549    0.1600
     12 N12       -12.6529    1.2726   64.1736 N.ar    1  ZINC001011676549   -0.5200
     13 C13       -11.5480    0.7949   64.7103 C.ar    1  ZINC001011676549    0.3000
     14 N14       -10.4828    0.5271   63.9820 N.ar    1  ZINC001011676549   -0.5200
     15 C15       -10.4887    0.7254   62.6736 C.ar    1  ZINC001011676549    0.1600
     16 C16        -9.8739   -3.0122   60.3509 C.3     1  ZINC001011676549   -0.1400
     17 C17        -9.6782   -4.2008   59.3770 C.3     1  ZINC001011676549    0.1000
     18 N18       -10.7371   -4.0369   58.3598 N.am    1  ZINC001011676549   -0.6100
     19 C19       -11.2563   -5.0221   57.6007 C.2     1  ZINC001011676549    0.5800
     20 O20       -10.8526   -6.1626   57.7250 O.2     1  ZINC001011676549   -0.5300
     21 C21       -12.3114   -4.7180   56.6217 C.2     1  ZINC001011676549   -0.1400
     22 C22       -13.5224   -5.2079   56.8162 C.2     1  ZINC001011676549   -0.1500
     23 C23       -14.6589   -4.9570   55.8657 C.3     1  ZINC001011676549    0.0900
     24 O24       -14.3390   -3.8713   54.9936 O.3     1  ZINC001011676549   -0.3800
     25 C25       -13.0596   -4.0137   54.3647 C.3     1  ZINC001011676549    0.0600
     26 C26       -11.9756   -3.8547   55.4366 C.3     1  ZINC001011676549   -0.1100
     27 H27       -12.8144   -2.9096   59.6310 H       1  ZINC001011676549    0.0600
     28 H28       -12.8962   -1.4305   58.6441 H       1  ZINC001011676549    0.0700
     29 H29       -13.2058   -3.0165   57.8979 H       1  ZINC001011676549    0.0800
     30 H30       -11.8164   -1.1441   60.6581 H       1  ZINC001011676549    0.4100
     31 H31       -11.2819    2.4715   60.3717 H       1  ZINC001011676549    0.1100
     32 H32       -12.7086    1.4152   60.2411 H       1  ZINC001011676549    0.1100
     33 H33       -13.6391    1.8936   62.4393 H       1  ZINC001011676549    0.1700
     34 H34       -11.5146    0.6185   65.7753 H       1  ZINC001011676549    0.2000
     35 H35        -9.6125    0.5035   62.0824 H       1  ZINC001011676549    0.1700
     36 H36        -8.9423   -2.7676   60.8610 H       1  ZINC001011676549    0.0900
     37 H37       -10.6672   -3.2216   61.0684 H       1  ZINC001011676549    0.0800
     38 H38        -8.6945   -4.1506   58.9099 H       1  ZINC001011676549    0.0800
     39 H39        -9.8010   -5.1471   59.9038 H       1  ZINC001011676549    0.0800
     40 H40       -13.7029   -5.8126   57.6927 H       1  ZINC001011676549    0.1200
     41 H41       -14.8402   -5.8544   55.2742 H       1  ZINC001011676549    0.0700
     42 H42       -15.5572   -4.7126   56.4328 H       1  ZINC001011676549    0.1100
     43 H43       -12.9846   -4.9996   53.9060 H       1  ZINC001011676549    0.0600
     44 H44       -12.9373   -3.2423   53.6043 H       1  ZINC001011676549    0.1000
     45 H45       -11.9198   -2.8106   55.7444 H       1  ZINC001011676549    0.0900
     46 H46       -11.0134   -4.1644   55.0285 H       1  ZINC001011676549    0.0900
@<TRIPOS>BOND
     1     1     2    1
     2     1    27    1
     3     1    28    1
     4     1    29    1
     5     2     3    1
     6     2    18    1
     7     2     4    1
     8     4     5    1
     9     4     6    1
    10     4    16    1
    11     6     7   am
    12     6    30    1
    13     7     8    2
    14     7     9    1
    15     9    10    1
    16     9    31    1
    17     9    32    1
    18    10    15   ar
    19    10    11   ar
    20    11    12   ar
    21    11    33    1
    22    12    13   ar
    23    13    14   ar
    24    13    34    1
    25    14    15   ar
    26    15    35    1
    27    16    17    1
    28    16    36    1
    29    16    37    1
    30    17    18    1
    31    17    38    1
    32    17    39    1
    33    18    19   am
    34    19    20    2
    35    19    21    1
    36    21    26    1
    37    21    22    2
    38    22    23    1
    39    22    40    1
    40    23    24    1
    41    23    41    1
    42    23    42    1
    43    24    25    1
    44    25    26    1
    45    25    43    1
    46    25    44    1
    47    26    45    1
    48    26    46    1
@<TRIPOS>SUBSTRUCTURE
     1 ZINC001011676549        1 TEMP              0 ****  ****    0 ROOT


##########                                Name:    ZINC000182044395
##########                DOCK_Rotatable_Bonds:                   8
##########                         Heavy_Atoms:                  28
##########                    Molecular_Weight:             398.889
##########                DOCK_Rotatable_Bonds:                   8
##########                       Formal_Charge:          -0.0399999
##########                     HBond_Acceptors:                   6
##########                        HBond_Donors:                   2
##########                         Heavy_Atoms:                  28
##########                          Grid_Score:          -32.597012
##########                     Grid_vdw_energy:          -32.003368
##########                      Grid_es_energy:           -0.593645
##########           Internal_energy_repulsive:           18.400616

@<TRIPOS>MOLECULE
ZINC000182044395
 51 53 1 0 0
SMALL
USER_CHARGES


@<TRIPOS>ATOM
      1 C1         -6.9888   -0.4011   50.5613 C.3     1  ZINC000182044395   -0.1800
      2 C2         -6.8814    0.9981   49.9517 C.3     1  ZINC000182044395    0.0800
      3 N3         -5.8536    1.7629   50.6623 N.pl3   1  ZINC000182044395   -0.4800
      4 C4         -4.6507    1.9054   50.0907 C.2     1  ZINC000182044395    0.2500
      5 C5         -3.6291    2.6099   50.6933 C.2     1  ZINC000182044395   -0.3500
      6 C6         -2.3217    2.7439   50.0320 C.2     1  ZINC000182044395    0.5900
      7 O7         -1.5735    3.6516   50.3418 O.2     1  ZINC000182044395   -0.5600
      8 N8         -1.9529    1.8609   49.0828 N.am    1  ZINC000182044395   -0.7200
      9 C9         -0.6510    1.9943   48.4243 C.3     1  ZINC000182044395    0.1100
     10 H10        -0.4994    3.0316   48.1259 H       1  ZINC000182044395    0.0900
     11 C11         0.4561    1.5755   49.3937 C.3     1  ZINC000182044395   -0.1600
     12 C12        -0.6115    1.0963   47.1861 C.3     1  ZINC000182044395    0.1100
     13 H13         0.4229    0.9556   46.8724 H       1  ZINC000182044395    0.1100
     14 O14        -1.1911   -0.1718   47.4987 O.3     1  ZINC000182044395   -0.5500
     15 C15        -1.4030    1.7538   46.0538 C.3     1  ZINC000182044395   -0.1100
     16 C16        -1.0567    1.0884   44.7467 C.ar    1  ZINC000182044395   -0.0800
     17 C17        -1.7819   -0.0065   44.3152 C.ar    1  ZINC000182044395   -0.1000
     18 C18        -1.4641   -0.6171   43.1164 C.ar    1  ZINC000182044395   -0.1200
     19 C19        -0.4217   -0.1323   42.3488 C.ar    1  ZINC000182044395   -0.1200
     20 C20         0.3066    0.9596   42.7827 C.ar    1  ZINC000182044395   -0.1200
     21 C21        -0.0138    1.5727   43.9796 C.ar    1  ZINC000182044395   -0.1200
     22 C22        -3.8667    3.2199   52.0110 C.2     1  ZINC000182044395    0.4400
     23 O23        -2.9952    3.8475   52.5867 O.2     1  ZINC000182044395   -0.4900
     24 C24        -5.2062    3.0443   52.6030 C.ar    1  ZINC000182044395   -0.1800
     25 C25        -5.5230    3.5921   53.8457 C.ar    1  ZINC000182044395   -0.0200
     26 C26        -6.7831    3.4028   54.3719 C.ar    1  ZINC000182044395   -0.0700
     27 Cl27       -7.1850    4.0811   55.9186 Cl      1  ZINC000182044395   -0.0500
     28 C28        -7.7323    2.6722   53.6695 C.ar    1  ZINC000182044395   -0.0500
     29 C29        -7.4322    2.1263   52.4408 C.ar    1  ZINC000182044395   -0.1600
     30 C30        -6.1655    2.3047   51.8907 C.ar    1  ZINC000182044395    0.1900
     31 H31        -7.2597   -0.3189   51.6140 H       1  ZINC000182044395    0.0700
     32 H32        -7.7536   -0.9701   50.0327 H       1  ZINC000182044395    0.0800
     33 H33        -6.0296   -0.9110   50.4718 H       1  ZINC000182044395    0.0700
     34 H34        -7.8407    1.5080   50.0413 H       1  ZINC000182044395    0.1000
     35 H35        -6.6105    0.9159   48.8991 H       1  ZINC000182044395    0.1100
     36 H36        -4.4746    1.4538   49.1255 H       1  ZINC000182044395    0.1800
     37 H37        -2.5495    1.1371   48.8358 H       1  ZINC000182044395    0.4100
     38 H38         0.4279    2.2152   50.2757 H       1  ZINC000182044395    0.0600
     39 H39         0.3045    0.5382   49.6921 H       1  ZINC000182044395    0.0600
     40 H40         1.4247    1.6747   48.9037 H       1  ZINC000182044395    0.0600
     41 H41        -2.1276   -0.1285   47.7359 H       1  ZINC000182044395    0.3700
     42 H42        -1.1499    2.8127   46.0007 H       1  ZINC000182044395    0.0800
     43 H43        -2.4704    1.6445   46.2456 H       1  ZINC000182044395    0.0800
     44 H44        -2.5966   -0.3850   44.9146 H       1  ZINC000182044395    0.1200
     45 H45        -2.0304   -1.4728   42.7794 H       1  ZINC000182044395    0.1200
     46 H46        -0.1733   -0.6094   41.4122 H       1  ZINC000182044395    0.1200
     47 H47         1.1239    1.3356   42.1852 H       1  ZINC000182044395    0.1200
     48 H48         0.5530    2.4279   44.3169 H       1  ZINC000182044395    0.1200
     49 H49        -4.7857    4.1611   54.3925 H       1  ZINC000182044395    0.1500
     50 H50        -8.7166    2.5307   54.0909 H       1  ZINC000182044395    0.1500
     51 H51        -8.1792    1.5604   51.9042 H       1  ZINC000182044395    0.1500
@<TRIPOS>BOND
     1     1     2    1
     2     1    31    1
     3     1    32    1
     4     1    33    1
     5     2     3    1
     6     2    34    1
     7     2    35    1
     8     3    30    1
     9     3     4    1
    10     4     5    2
    11     4    36    1
    12     5     6    1
    13     5    22    1
    14     6     7    2
    15     6     8   am
    16     8     9    1
    17     8    37    1
    18     9    10    1
    19     9    11    1
    20     9    12    1
    21    11    38    1
    22    11    39    1
    23    11    40    1
    24    12    13    1
    25    12    14    1
    26    12    15    1
    27    14    41    1
    28    15    16    1
    29    15    42    1
    30    15    43    1
    31    16    21   ar
    32    16    17   ar
    33    17    18   ar
    34    17    44    1
    35    18    19   ar
    36    18    45    1
    37    19    20   ar
    38    19    46    1
    39    20    21   ar
    40    20    47    1
    41    21    48    1
    42    22    23    2
    43    22    24    1
    44    24    30   ar
    45    24    25   ar
    46    25    26   ar
    47    25    49    1
    48    26    27    1
    49    26    28   ar
    50    28    29   ar
    51    28    50    1
    52    29    30   ar
    53    29    51    1
@<TRIPOS>SUBSTRUCTURE
     1 ZINC000182044395        1 TEMP              0 ****  ****    0 ROOT


##########                                Name:    ZINC000650955167
##########                DOCK_Rotatable_Bonds:                   9
##########                         Heavy_Atoms:                  26
##########                    Molecular_Weight:             361.484
##########                DOCK_Rotatable_Bonds:                   9
##########                       Formal_Charge:        -7.07805e-07
##########                     HBond_Acceptors:                   6
##########                        HBond_Donors:                   2
##########                         Heavy_Atoms:                  26
##########                          Grid_Score:          -32.587547
##########                     Grid_vdw_energy:          -32.534954
##########                      Grid_es_energy:           -0.052594
##########           Internal_energy_repulsive:           29.764692

@<TRIPOS>MOLECULE
ZINC000650955167
 57 59 1 0 0
SMALL
USER_CHARGES


@<TRIPOS>ATOM
      1 C1         -9.2024   -2.5961   61.4611 C.3     1  ZINC000650955167    0.0200
      2 O2         -9.3456   -1.1922   61.2357 O.3     1  ZINC000650955167   -0.3200
      3 C3        -10.0615   -0.4899   62.1529 C.ar    1  ZINC000650955167    0.1300
      4 C4         -9.5827   -0.3478   63.4470 C.ar    1  ZINC000650955167   -0.2000
      5 C5        -10.3122    0.3671   64.3775 C.ar    1  ZINC000650955167   -0.0800
      6 C6        -11.5184    0.9401   64.0198 C.ar    1  ZINC000650955167   -0.1500
      7 C7        -11.9980    0.7994   62.7305 C.ar    1  ZINC000650955167   -0.0800
      8 C8        -11.2696    0.0909   61.7948 C.ar    1  ZINC000650955167   -0.1100
      9 C9        -11.7926   -0.0616   60.3898 C.3     1  ZINC000650955167   -0.0800
     10 C10       -12.4479   -1.4355   60.2358 C.3     1  ZINC000650955167    0.1800
     11 H11       -11.8341   -2.1883   60.7302 H       1  ZINC000650955167    0.0900
     12 N12       -12.5692   -1.7619   58.8127 N.am    1  ZINC000650955167   -0.7300
     13 C13       -11.9133   -2.8252   58.3070 C.2     1  ZINC000650955167    0.7400
     14 O14       -11.2223   -3.5144   59.0322 O.2     1  ZINC000650955167   -0.5800
     15 N15       -12.0236   -3.1245   56.9975 N.am    1  ZINC000650955167   -0.6700
     16 C16       -12.7254   -2.5562   55.8368 C.3     1  ZINC000650955167    0.1100
     17 C17       -12.7386   -3.9635   55.2242 C.3     1  ZINC000650955167    0.0300
     18 N18       -12.4697   -3.9944   53.7802 N.3     1  ZINC000650955167   -0.5100
     19 C19       -11.1755   -3.3511   53.4684 C.3     1  ZINC000650955167    0.0400
     20 C20       -11.3877   -2.6851   52.0860 C.3     1  ZINC000650955167   -0.1600
     21 C21       -12.8540   -2.1910   52.1980 C.3     1  ZINC000650955167    0.0800
     22 H22       -12.8998   -1.2352   52.7199 H       1  ZINC000650955167    0.0600
     23 O23       -13.4526   -2.0876   50.9045 O.3     1  ZINC000650955167   -0.5600
     24 C24       -13.5320   -3.3000   53.0299 C.3     1  ZINC000650955167    0.0500
     25 C25       -11.4896   -4.1594   56.0993 C.3     1  ZINC000650955167    0.1400
     26 C26       -13.8384   -1.4116   60.8738 C.3     1  ZINC000650955167   -0.1100
     27 C27       -14.8212   -0.7174   59.9287 C.3     1  ZINC000650955167   -0.1400
     28 C28       -14.3056   -2.8455   61.1321 C.3     1  ZINC000650955167   -0.1500
     29 H29        -8.6109   -3.0347   60.6574 H       1  ZINC000650955167    0.1000
     30 H30        -8.6998   -2.7616   62.4141 H       1  ZINC000650955167    0.0600
     31 H31       -10.1872   -3.0628   61.4838 H       1  ZINC000650955167    0.0600
     32 H32        -8.6408   -0.7958   63.7271 H       1  ZINC000650955167    0.1300
     33 H33        -9.9399    0.4781   65.3852 H       1  ZINC000650955167    0.1200
     34 H34       -12.0873    1.4982   64.7487 H       1  ZINC000650955167    0.1200
     35 H35       -12.9407    1.2477   62.4536 H       1  ZINC000650955167    0.1300
     36 H36       -12.5290    0.7167   60.1898 H       1  ZINC000650955167    0.0900
     37 H37       -10.9675    0.0287   59.6832 H       1  ZINC000650955167    0.0800
     38 H38       -13.1214   -1.2127   58.2345 H       1  ZINC000650955167    0.4000
     39 H39       -13.7192   -2.1765   56.0736 H       1  ZINC000650955167    0.0700
     40 H40       -12.1244   -1.8429   55.2727 H       1  ZINC000650955167    0.0900
     41 H41       -13.5961   -4.5699   55.5158 H       1  ZINC000650955167    0.0900
     42 H42       -10.9353   -2.5984   54.2194 H       1  ZINC000650955167    0.0500
     43 H43       -10.3841   -4.0985   53.4122 H       1  ZINC000650955167    0.0900
     44 H44       -10.7033   -1.8483   51.9465 H       1  ZINC000650955167    0.0800
     45 H45       -11.2813   -3.4129   51.2816 H       1  ZINC000650955167    0.0900
     46 H46       -13.4874   -2.9234   50.4193 H       1  ZINC000650955167    0.3800
     47 H47       -14.0387   -4.0026   52.3683 H       1  ZINC000650955167    0.0900
     48 H48       -14.2477   -2.8582   53.7234 H       1  ZINC000650955167    0.0700
     49 H49       -10.5626   -3.8722   55.6032 H       1  ZINC000650955167    0.0900
     50 H50       -11.4333   -5.1452   56.5610 H       1  ZINC000650955167    0.0800
     51 H51       -13.7959   -0.8678   61.8174 H       1  ZINC000650955167    0.0700
     52 H52       -14.8637   -1.2614   58.9851 H       1  ZINC000650955167    0.0600
     53 H53       -15.8118   -0.7006   60.3833 H       1  ZINC000650955167    0.0400
     54 H54       -14.4883    0.3040   59.7447 H       1  ZINC000650955167    0.0500
     55 H55       -13.6054   -3.3401   61.8053 H       1  ZINC000650955167    0.0600
     56 H56       -15.2961   -2.8285   61.5866 H       1  ZINC000650955167    0.0600
     57 H57       -14.3480   -3.3894   60.1884 H       1  ZINC000650955167    0.0600
@<TRIPOS>BOND
     1     1     2    1
     2     1    29    1
     3     1    30    1
     4     1    31    1
     5     2     3    1
     6     3     8   ar
     7     3     4   ar
     8     4     5   ar
     9     4    32    1
    10     5     6   ar
    11     5    33    1
    12     6     7   ar
    13     6    34    1
    14     7     8   ar
    15     7    35    1
    16     8     9    1
    17     9    10    1
    18     9    36    1
    19     9    37    1
    20    10    11    1
    21    10    12    1
    22    10    26    1
    23    12    13   am
    24    12    38    1
    25    13    14    2
    26    13    15   am
    27    15    25    1
    28    15    16    1
    29    16    17    1
    30    16    39    1
    31    16    40    1
    32    17    18    1
    33    17    25    1
    34    17    41    1
    35    18    24    1
    36    18    19    1
    37    19    20    1
    38    19    42    1
    39    19    43    1
    40    20    21    1
    41    20    44    1
    42    20    45    1
    43    21    22    1
    44    21    23    1
    45    21    24    1
    46    23    46    1
    47    24    47    1
    48    24    48    1
    49    25    49    1
    50    25    50    1
    51    26    27    1
    52    26    28    1
    53    26    51    1
    54    27    52    1
    55    27    53    1
    56    27    54    1
    57    28    55    1
    58    28    56    1
    59    28    57    1
@<TRIPOS>SUBSTRUCTURE
     1 ZINC000650955167        1 TEMP              0 ****  ****    0 ROOT


##########                                Name:    ZINC000892389374
##########                DOCK_Rotatable_Bonds:                   6
##########                         Heavy_Atoms:                  25
##########                    Molecular_Weight:             371.383
##########                DOCK_Rotatable_Bonds:                   6
##########                       Formal_Charge:          -0.0199998
##########                     HBond_Acceptors:                   9
##########                        HBond_Donors:                   1
##########                         Heavy_Atoms:                  25
##########                          Grid_Score:          -32.567200
##########                     Grid_vdw_energy:          -31.960020
##########                      Grid_es_energy:           -0.607179
##########           Internal_energy_repulsive:           10.323386

@<TRIPOS>MOLECULE
ZINC000892389374
 41 43 1 0 0
SMALL
USER_CHARGES


@<TRIPOS>ATOM
      1 C1        -15.1874   -4.1007   54.2566 C.3     1  ZINC000892389374   -0.1000
      2 C2        -14.0900   -3.9406   55.2771 C.ar    1  ZINC000892389374   -0.1800
      3 C3        -14.3997   -3.5670   56.5704 C.ar    1  ZINC000892389374   -0.0400
      4 C4        -13.3965   -3.4196   57.5091 C.ar    1  ZINC000892389374   -0.2100
      5 C5        -12.0727   -3.6463   57.1547 C.ar    1  ZINC000892389374    0.2200
      6 N6        -11.0574   -3.4967   58.1063 N.am    1  ZINC000892389374   -0.5700
      7 C7        -10.5603   -2.2163   58.6327 C.3     1  ZINC000892389374    0.0600
      8 C8         -9.4633   -2.6314   59.6319 C.3     1  ZINC000892389374    0.0400
      9 O9         -9.4572   -4.0868   59.5646 O.3     1  ZINC000892389374   -0.3200
     10 C10       -10.3836   -4.4968   58.6907 C.2     1  ZINC000892389374    0.6400
     11 O11       -10.5892   -5.6685   58.4431 O.2     1  ZINC000892389374   -0.5000
     12 C12       -11.7579   -4.0218   55.8566 C.ar    1  ZINC000892389374   -0.2300
     13 C13       -12.7680   -4.1747   54.9175 C.ar    1  ZINC000892389374    0.2400
     14 N14       -12.4556   -4.5524   53.6097 N.pl3   1  ZINC000892389374   -0.7400
     15 C15       -11.4532   -3.8013   52.8500 C.3     1  ZINC000892389374    0.2000
     16 C16       -12.0365   -2.4810   52.4169 C.2     1  ZINC000892389374   -0.2400
     17 C17       -11.6580   -1.2745   52.8494 C.2     1  ZINC000892389374    0.0600
     18 N18       -12.3242   -0.2695   52.3177 N.2     1  ZINC000892389374   -0.4500
     19 C19       -13.2438   -0.5611   51.4608 C.2     1  ZINC000892389374    0.0200
     20 C20       -14.1095    0.4459   50.7484 C.3     1  ZINC000892389374   -0.0900
     21 C21       -14.7164   -0.1964   49.4994 C.3     1  ZINC000892389374    0.4600
     22 F22       -15.3452    0.7869   48.7280 F       1  ZINC000892389374   -0.1800
     23 F23       -13.7041   -0.8023   48.7477 F       1  ZINC000892389374   -0.1800
     24 F24       -15.6553   -1.1611   49.8805 F       1  ZINC000892389374   -0.1700
     25 S25       -13.3329   -2.2549   51.2453 S.3     1  ZINC000892389374    0.1900
     26 H26       -15.5546   -5.1268   54.2758 H       1  ZINC000892389374    0.0700
     27 H27       -16.0041   -3.4181   54.4911 H       1  ZINC000892389374    0.0700
     28 H28       -14.7970   -3.8730   53.2646 H       1  ZINC000892389374    0.0600
     29 H29       -15.4280   -3.3893   56.8483 H       1  ZINC000892389374    0.1300
     30 H30       -13.6419   -3.1272   58.5194 H       1  ZINC000892389374    0.1200
     31 H31       -10.1384   -1.6106   57.8307 H       1  ZINC000892389374    0.1000
     32 H32       -11.3582   -1.6764   59.1425 H       1  ZINC000892389374    0.1000
     33 H33        -8.4967   -2.2307   59.3265 H       1  ZINC000892389374    0.1100
     34 H34        -9.7161   -2.2965   60.6379 H       1  ZINC000892389374    0.1100
     35 H35       -10.7293   -4.1984   55.5787 H       1  ZINC000892389374    0.1600
     36 H36       -12.9022   -5.3122   53.2044 H       1  ZINC000892389374    0.4000
     37 H37       -10.5795   -3.6243   53.4772 H       1  ZINC000892389374    0.0900
     38 H38       -11.1591   -4.3744   51.9707 H       1  ZINC000892389374    0.0800
     39 H39       -10.8705   -1.1346   53.5751 H       1  ZINC000892389374    0.1800
     40 H40       -14.9086    0.7732   51.4135 H       1  ZINC000892389374    0.1300
     41 H41       -13.5042    1.3045   50.4578 H       1  ZINC000892389374    0.1400
@<TRIPOS>BOND
     1     1     2    1
     2     1    26    1
     3     1    27    1
     4     1    28    1
     5     2    13   ar
     6     2     3   ar
     7     3     4   ar
     8     3    29    1
     9     4     5   ar
    10     4    30    1
    11     5     6    1
    12     5    12   ar
    13     6    10   am
    14     6     7    1
    15     7     8    1
    16     7    31    1
    17     7    32    1
    18     8     9    1
    19     8    33    1
    20     8    34    1
    21     9    10    1
    22    10    11    2
    23    12    13   ar
    24    12    35    1
    25    13    14    1
    26    14    15    1
    27    14    36    1
    28    15    16    1
    29    15    37    1
    30    15    38    1
    31    16    25    1
    32    16    17    2
    33    17    18    1
    34    17    39    1
    35    18    19    2
    36    19    20    1
    37    19    25    1
    38    20    21    1
    39    20    40    1
    40    20    41    1
    41    21    22    1
    42    21    23    1
    43    21    24    1
@<TRIPOS>SUBSTRUCTURE
     1 ZINC000892389374        1 TEMP              0 ****  ****    0 ROOT


##########                                Name:    ZINC000443394081
##########                DOCK_Rotatable_Bonds:                   8
##########                         Heavy_Atoms:                  27
##########                    Molecular_Weight:             389.878
##########                DOCK_Rotatable_Bonds:                   8
##########                       Formal_Charge:          -0.0300003
##########                     HBond_Acceptors:                   6
##########                        HBond_Donors:                   1
##########                         Heavy_Atoms:                  27
##########                          Grid_Score:          -32.559669
##########                     Grid_vdw_energy:          -32.167183
##########                      Grid_es_energy:           -0.392486
##########           Internal_energy_repulsive:           30.452354

@<TRIPOS>MOLECULE
ZINC000443394081
 51 53 1 0 0
SMALL
USER_CHARGES


@<TRIPOS>ATOM
      1 C1         -7.4730    3.6919   56.6501 C.3     1  ZINC000443394081    0.0200
      2 O2         -7.4902    2.6792   55.6419 O.3     1  ZINC000443394081   -0.3000
      3 C3         -8.4149    1.6910   55.7751 C.ar    1  ZINC000443394081    0.1000
      4 C4         -8.5680    1.0472   56.9873 C.ar    1  ZINC000443394081   -0.1200
      5 C5         -9.5198    0.0324   57.1208 C.ar    1  ZINC000443394081   -0.1300
      6 C6         -9.6878   -0.6586   58.4142 C.2     1  ZINC000443394081    0.5700
      7 O7         -9.2963   -1.8019   58.5481 O.2     1  ZINC000443394081   -0.4900
      8 N8        -10.2750   -0.0222   59.4469 N.am    1  ZINC000443394081   -0.6100
      9 C9        -10.7933    1.3577   59.4231 C.3     1  ZINC000443394081    0.0900
     10 C10       -11.8677    1.3971   60.5384 C.3     1  ZINC000443394081   -0.1300
     11 C11       -11.2271    0.4882   61.6203 C.3     1  ZINC000443394081   -0.1000
     12 H12       -10.5135    1.0501   62.2229 H       1  ZINC000443394081    0.0900
     13 C13       -12.3044   -0.1403   62.5064 C.3     1  ZINC000443394081   -0.1500
     14 C14       -10.5107   -0.5913   60.7820 C.3     1  ZINC000443394081    0.1400
     15 H15        -9.5571   -0.8472   61.2439 H       1  ZINC000443394081    0.0800
     16 C16       -11.3903   -1.8389   60.6790 C.3     1  ZINC000443394081    0.0600
     17 O17       -12.5107   -1.5636   59.8359 O.3     1  ZINC000443394081   -0.5400
     18 C18       -10.3119   -0.3261   56.0278 C.ar    1  ZINC000443394081   -0.1000
     19 C19       -10.1538    0.3200   54.8206 C.ar    1  ZINC000443394081   -0.1800
     20 C20        -9.2127    1.3316   54.6893 C.ar    1  ZINC000443394081    0.1300
     21 O21        -9.0607    1.9652   53.4979 O.3     1  ZINC000443394081   -0.3000
     22 C22        -8.6275    1.1712   52.3915 C.3     1  ZINC000443394081    0.1000
     23 C23        -7.2447    1.6018   51.9752 C.ar    1  ZINC000443394081   -0.0800
     24 C24        -6.7385    2.8130   52.4073 C.ar    1  ZINC000443394081   -0.0800
     25 C25        -5.4698    3.2082   52.0253 C.ar    1  ZINC000443394081   -0.1100
     26 C26        -4.7072    2.3926   51.2107 C.ar    1  ZINC000443394081   -0.1000
     27 C27        -5.2125    1.1808   50.7778 C.ar    1  ZINC000443394081   -0.1100
     28 C28        -6.4792    0.7820   51.1646 C.ar    1  ZINC000443394081   -0.0300
     29 Cl29       -7.1144   -0.7394   50.6214 Cl      1  ZINC000443394081   -0.0700
     30 H30        -6.6906    4.4163   56.4240 H       1  ZINC000443394081    0.1000
     31 H31        -8.4390    4.1962   56.6748 H       1  ZINC000443394081    0.0600
     32 H32        -7.2764    3.2355   57.6202 H       1  ZINC000443394081    0.0600
     33 H33        -7.9534    1.3271   57.8300 H       1  ZINC000443394081    0.1500
     34 H34        -9.9945    2.0668   59.6406 H       1  ZINC000443394081    0.0700
     35 H35       -11.2433    1.5773   58.4549 H       1  ZINC000443394081    0.0800
     36 H36       -12.0057    2.4117   60.9122 H       1  ZINC000443394081    0.0900
     37 H37       -12.8114    0.9803   60.1866 H       1  ZINC000443394081    0.0800
     38 H38       -12.9893   -0.7214   61.8889 H       1  ZINC000443394081    0.0600
     39 H39       -11.8345   -0.7938   63.2415 H       1  ZINC000443394081    0.0600
     40 H40       -12.8568    0.6464   63.0202 H       1  ZINC000443394081    0.0600
     41 H41       -10.8098   -2.6586   60.2557 H       1  ZINC000443394081    0.0600
     42 H42       -11.7426   -2.1180   61.6720 H       1  ZINC000443394081    0.0400
     43 H43       -12.2710   -1.2938   58.9388 H       1  ZINC000443394081    0.3700
     44 H44       -11.0480   -1.1100   56.1284 H       1  ZINC000443394081    0.1400
     45 H45       -10.7667    0.0414   53.9761 H       1  ZINC000443394081    0.1400
     46 H46        -8.6086    0.1211   52.6833 H       1  ZINC000443394081    0.0800
     47 H47        -9.3161    1.3042   51.5572 H       1  ZINC000443394081    0.0800
     48 H48        -7.3342    3.4510   53.0433 H       1  ZINC000443394081    0.1400
     49 H49        -5.0746    4.1548   52.3633 H       1  ZINC000443394081    0.1300
     50 H50        -3.7165    2.7021   50.9120 H       1  ZINC000443394081    0.1300
     51 H51        -4.6164    0.5435   50.1413 H       1  ZINC000443394081    0.1400
@<TRIPOS>BOND
     1     1     2    1
     2     1    30    1
     3     1    31    1
     4     1    32    1
     5     2     3    1
     6     3    20   ar
     7     3     4   ar
     8     4     5   ar
     9     4    33    1
    10     5     6    1
    11     5    18   ar
    12     6     7    2
    13     6     8   am
    14     8    14    1
    15     8     9    1
    16     9    10    1
    17     9    34    1
    18     9    35    1
    19    10    11    1
    20    10    36    1
    21    10    37    1
    22    11    12    1
    23    11    13    1
    24    11    14    1
    25    13    38    1
    26    13    39    1
    27    13    40    1
    28    14    15    1
    29    14    16    1
    30    16    17    1
    31    16    41    1
    32    16    42    1
    33    17    43    1
    34    18    19   ar
    35    18    44    1
    36    19    20   ar
    37    19    45    1
    38    20    21    1
    39    21    22    1
    40    22    23    1
    41    22    46    1
    42    22    47    1
    43    23    28   ar
    44    23    24   ar
    45    24    25   ar
    46    24    48    1
    47    25    26   ar
    48    25    49    1
    49    26    27   ar
    50    26    50    1
    51    27    28   ar
    52    27    51    1
    53    28    29    1
@<TRIPOS>SUBSTRUCTURE
     1 ZINC000443394081        1 TEMP              0 ****  ****    0 ROOT


##########                                Name:    ZINC000065993627
##########                DOCK_Rotatable_Bonds:                   7
##########                         Heavy_Atoms:                  28
##########                    Molecular_Weight:             382.462
##########                DOCK_Rotatable_Bonds:                   7
##########                       Formal_Charge:          -0.0200002
##########                     HBond_Acceptors:                   7
##########                        HBond_Donors:                   2
##########                         Heavy_Atoms:                  28
##########                          Grid_Score:          -32.552078
##########                     Grid_vdw_energy:          -33.090080
##########                      Grid_es_energy:            0.538000
##########           Internal_energy_repulsive:           33.188000

@<TRIPOS>MOLECULE
ZINC000065993627
 54 56 1 0 0
SMALL
USER_CHARGES


@<TRIPOS>ATOM
      1 C1         -7.9859    3.3508   51.2650 C.3     1  ZINC000065993627   -0.1200
      2 C2         -8.2324    1.8893   51.5374 C.ar    1  ZINC000065993627   -0.0700
      3 C3         -9.1750    1.5110   52.4725 C.ar    1  ZINC000065993627   -0.1800
      4 C4         -9.4023    0.1639   52.7236 C.ar    1  ZINC000065993627    0.2000
      5 N5        -10.3577   -0.2198   53.6710 N.pl3   1  ZINC000065993627   -0.6400
      6 C6        -11.6571   -0.7358   53.2334 C.3     1  ZINC000065993627    0.1000
      7 C7        -10.0587   -0.1057   55.1006 C.3     1  ZINC000065993627    0.0900
      8 C8         -8.6813   -0.8020   52.0341 C.ar    1  ZINC000065993627   -0.1800
      9 C9         -7.7385   -0.4230   51.0989 C.ar    1  ZINC000065993627   -0.0800
     10 C10        -7.5156    0.9232   50.8440 C.ar    1  ZINC000065993627    0.1100
     11 N11        -6.5588    1.3077   49.8941 N.am    1  ZINC000065993627   -0.6800
     12 C12        -5.2634    1.4185   50.2493 C.2     1  ZINC000065993627    0.7000
     13 O13        -4.9245    1.1851   51.3935 O.2     1  ZINC000065993627   -0.5700
     14 N14        -4.3436    1.7880   49.3362 N.am    1  ZINC000065993627   -0.7400
     15 C15        -2.9352    1.9068   49.7218 C.3     1  ZINC000065993627    0.2100
     16 H16        -2.7176    1.2023   50.5246 H       1  ZINC000065993627    0.1000
     17 C17        -2.6570    3.3318   50.2045 C.3     1  ZINC000065993627   -0.1600
     18 C18        -2.0612    1.5995   48.5332 C.ar    1  ZINC000065993627   -0.1200
     19 C19        -2.6159    1.0461   47.3937 C.ar    1  ZINC000065993627   -0.0800
     20 C20        -1.8176    0.7632   46.3027 C.ar    1  ZINC000065993627   -0.1500
     21 C21        -0.4567    1.0352   46.3509 C.ar    1  ZINC000065993627    0.1800
     22 N22         0.3549    0.7502   45.2469 N.am    1  ZINC000065993627   -0.5700
     23 C23         1.8254    0.7154   45.2525 C.3     1  ZINC000065993627    0.0600
     24 C24         2.1895    0.3575   43.7987 C.3     1  ZINC000065993627    0.0400
     25 O25         0.8996    0.2295   43.1332 O.3     1  ZINC000065993627   -0.3200
     26 C26        -0.0812    0.4589   44.0137 C.2     1  ZINC000065993627    0.6400
     27 O27        -1.2594    0.4160   43.7198 O.2     1  ZINC000065993627   -0.5000
     28 C28         0.0972    1.5910   47.4966 C.ar    1  ZINC000065993627   -0.1500
     29 C29        -0.7074    1.8767   48.5822 C.ar    1  ZINC000065993627   -0.0800
     30 H30        -8.6505    3.6893   50.4700 H       1  ZINC000065993627    0.0700
     31 H31        -8.1790    3.9267   52.1699 H       1  ZINC000065993627    0.0700
     32 H32        -6.9499    3.4933   50.9576 H       1  ZINC000065993627    0.0600
     33 H33        -9.7354    2.2623   53.0090 H       1  ZINC000065993627    0.1200
     34 H34       -11.5992   -1.8185   53.1215 H       1  ZINC000065993627    0.0500
     35 H35       -12.4155   -0.4873   53.9758 H       1  ZINC000065993627    0.0700
     36 H36       -11.9235   -0.2855   52.2771 H       1  ZINC000065993627    0.0700
     37 H37        -9.0899    0.3764   55.2318 H       1  ZINC000065993627    0.0800
     38 H38       -10.8304    0.4911   55.5867 H       1  ZINC000065993627    0.0500
     39 H39       -10.0332   -1.0998   55.5470 H       1  ZINC000065993627    0.0500
     40 H40        -8.8575   -1.8494   52.2295 H       1  ZINC000065993627    0.1300
     41 H41        -7.1777   -1.1742   50.5625 H       1  ZINC000065993627    0.1500
     42 H42        -6.8290    1.4938   48.9813 H       1  ZINC000065993627    0.4000
     43 H43        -4.6140    1.9754   48.4237 H       1  ZINC000065993627    0.4000
     44 H44        -3.2891    3.5540   51.0642 H       1  ZINC000065993627    0.0700
     45 H45        -1.6092    3.4202   50.4914 H       1  ZINC000065993627    0.0700
     46 H46        -2.8746    4.0363   49.4017 H       1  ZINC000065993627    0.0600
     47 H47        -3.6743    0.8344   47.3570 H       1  ZINC000065993627    0.1300
     48 H48        -2.2512    0.3307   45.4132 H       1  ZINC000065993627    0.1600
     49 H49         2.2305    1.6915   45.5194 H       1  ZINC000065993627    0.1000
     50 H50         2.1876   -0.0509   45.9377 H       1  ZINC000065993627    0.1000
     51 H51         2.7764    1.1556   43.3441 H       1  ZINC000065993627    0.1100
     52 H52         2.7336   -0.5864   43.7623 H       1  ZINC000065993627    0.1100
     53 H53         1.1553    1.8033   47.5372 H       1  ZINC000065993627    0.1300
     54 H54        -0.2773    2.3092   49.4734 H       1  ZINC000065993627    0.1300
@<TRIPOS>BOND
     1     1     2    1
     2     1    30    1
     3     1    31    1
     4     1    32    1
     5     2    10   ar
     6     2     3   ar
     7     3     4   ar
     8     3    33    1
     9     4     5    1
    10     4     8   ar
    11     5     6    1
    12     5     7    1
    13     6    34    1
    14     6    35    1
    15     6    36    1
    16     7    37    1
    17     7    38    1
    18     7    39    1
    19     8     9   ar
    20     8    40    1
    21     9    10   ar
    22     9    41    1
    23    10    11    1
    24    11    12   am
    25    11    42    1
    26    12    13    2
    27    12    14   am
    28    14    15    1
    29    14    43    1
    30    15    16    1
    31    15    17    1
    32    15    18    1
    33    17    44    1
    34    17    45    1
    35    17    46    1
    36    18    29   ar
    37    18    19   ar
    38    19    20   ar
    39    19    47    1
    40    20    21   ar
    41    20    48    1
    42    21    22    1
    43    21    28   ar
    44    22    26   am
    45    22    23    1
    46    23    24    1
    47    23    49    1
    48    23    50    1
    49    24    25    1
    50    24    51    1
    51    24    52    1
    52    25    26    1
    53    26    27    2
    54    28    29   ar
    55    28    53    1
    56    29    54    1
@<TRIPOS>SUBSTRUCTURE
     1 ZINC000065993627        1 TEMP              0 ****  ****    0 ROOT


##########                                Name:    ZINC000550011575
##########                DOCK_Rotatable_Bonds:                   6
##########                         Heavy_Atoms:                  28
##########                    Molecular_Weight:             423.935
##########                DOCK_Rotatable_Bonds:                   6
##########                       Formal_Charge:          -0.0100002
##########                     HBond_Acceptors:                   7
##########                        HBond_Donors:                   0
##########                         Heavy_Atoms:                  28
##########                          Grid_Score:          -32.550900
##########                     Grid_vdw_energy:          -32.402157
##########                      Grid_es_energy:           -0.148744
##########           Internal_energy_repulsive:           35.830284

@<TRIPOS>MOLECULE
ZINC000550011575
 51 53 1 0 0
SMALL
USER_CHARGES


@<TRIPOS>ATOM
      1 C1        -14.8618   -2.9858   52.8435 C.3     1  ZINC000550011575   -0.1400
      2 C2        -13.7410   -2.4285   53.7233 C.3     1  ZINC000550011575   -0.6100
      3 H3        -14.0641   -1.4890   54.1716 H       1  ZINC000550011575    0.1500
      4 C4        -13.4168   -3.4193   54.8116 C.2     1  ZINC000550011575    0.5400
      5 O5        -12.4537   -4.1480   54.7010 O.2     1  ZINC000550011575   -0.5100
      6 N6        -14.1973   -3.4955   55.9077 N.am    1  ZINC000550011575   -0.6000
      7 C7        -15.3617   -2.6164   56.0404 C.3     1  ZINC000550011575    0.0600
      8 C8        -13.8812   -4.4574   56.9665 C.3     1  ZINC000550011575    0.1500
      9 C9        -13.4346   -3.7172   58.2009 C.ar    1  ZINC000550011575   -0.1500
     10 C10       -12.1519   -3.2020   58.2733 C.ar    1  ZINC000550011575    0.1400
     11 F11       -11.2996   -3.3625   57.2374 F       1  ZINC000550011575   -0.1100
     12 C12       -11.7429   -2.5215   59.4079 C.ar    1  ZINC000550011575   -0.1500
     13 C13       -12.6152   -2.3571   60.4670 C.ar    1  ZINC000550011575   -0.0700
     14 C14       -13.8963   -2.8716   60.3947 C.ar    1  ZINC000550011575   -0.1300
     15 C15       -14.3082   -3.5471   59.2599 C.ar    1  ZINC000550011575    0.0000
     16 Cl16      -15.9174   -4.1923   59.1698 Cl      1  ZINC000550011575   -0.0500
     17 S17       -12.2644   -2.1386   52.7101 S.o2    1  ZINC000550011575    2.4500
     18 O18       -11.7405   -3.3954   52.3034 O.2     1  ZINC000550011575   -0.9200
     19 O19       -12.5765   -1.1649   51.7233 O.2     1  ZINC000550011575   -0.9100
     20 C20       -11.1247   -1.3988   53.9118 C.3     1  ZINC000550011575   -0.5300
     21 H21       -10.7737   -2.1707   54.5967 H       1  ZINC000550011575    0.1500
     22 C22       -11.8592   -0.3191   54.7040 C.3     1  ZINC000550011575   -0.1100
     23 C23       -10.8339    0.4386   55.5555 C.3     1  ZINC000550011575   -0.1100
     24 C24        -9.9519    1.2674   54.6238 C.3     1  ZINC000550011575   -0.0900
     25 C25        -9.4020    0.4101   53.5140 C.ar    1  ZINC000550011575   -0.0600
     26 C26        -8.3039    0.8882   52.8113 C.ar    1  ZINC000550011575   -0.1200
     27 C27        -7.7571    0.1526   51.7798 C.ar    1  ZINC000550011575   -0.1100
     28 C28        -8.3068   -1.0698   51.4421 C.ar    1  ZINC000550011575   -0.1100
     29 C29        -9.3965   -1.5476   52.1407 C.ar    1  ZINC000550011575   -0.1500
     30 C30        -9.9463   -0.8097   53.1815 C.ar    1  ZINC000550011575   -0.0800
     31 H31       -15.2087   -2.2093   52.1617 H       1  ZINC000550011575    0.0900
     32 H32       -14.4859   -3.8323   52.2689 H       1  ZINC000550011575    0.0900
     33 H33       -15.6894   -3.3127   53.4730 H       1  ZINC000550011575    0.0800
     34 H34       -16.2357   -3.1033   55.6077 H       1  ZINC000550011575    0.0700
     35 H35       -15.5445   -2.4125   57.0954 H       1  ZINC000550011575    0.0800
     36 H36       -15.1712   -1.6796   55.5170 H       1  ZINC000550011575    0.0700
     37 H37       -14.7679   -5.0476   57.1977 H       1  ZINC000550011575    0.1000
     38 H38       -13.0823   -5.1184   56.6302 H       1  ZINC000550011575    0.1100
     39 H39       -10.7422   -2.1195   59.4653 H       1  ZINC000550011575    0.1500
     40 H40       -12.2957   -1.8266   61.3519 H       1  ZINC000550011575    0.1500
     41 H41       -14.5771   -2.7428   61.2232 H       1  ZINC000550011575    0.1400
     42 H42       -12.3479    0.3717   54.0169 H       1  ZINC000550011575    0.0800
     43 H43       -12.6040   -0.7817   55.3516 H       1  ZINC000550011575    0.0900
     44 H44       -11.3511    1.0971   56.2533 H       1  ZINC000550011575    0.0800
     45 H45       -10.2186   -0.2718   56.1078 H       1  ZINC000550011575    0.0700
     46 H46       -10.5431    2.0760   54.1941 H       1  ZINC000550011575    0.0800
     47 H47        -9.1252    1.6911   55.1940 H       1  ZINC000550011575    0.0800
     48 H48        -7.8744    1.8436   53.0740 H       1  ZINC000550011575    0.1300
     49 H49        -6.9028    0.5308   51.2380 H       1  ZINC000550011575    0.1300
     50 H50        -7.8850   -1.6488   50.6338 H       1  ZINC000550011575    0.1300
     51 H51        -9.8258   -2.5025   51.8758 H       1  ZINC000550011575    0.1700
@<TRIPOS>BOND
     1     1     2    1
     2     1    31    1
     3     1    32    1
     4     1    33    1
     5     2     3    1
     6     2     4    1
     7     2    17    1
     8     4     5    2
     9     4     6   am
    10     6     7    1
    11     6     8    1
    12     7    34    1
    13     7    35    1
    14     7    36    1
    15     8     9    1
    16     8    37    1
    17     8    38    1
    18     9    15   ar
    19     9    10   ar
    20    10    11    1
    21    10    12   ar
    22    12    13   ar
    23    12    39    1
    24    13    14   ar
    25    13    40    1
    26    14    15   ar
    27    14    41    1
    28    15    16    1
    29    17    18    2
    30    17    19    2
    31    17    20    1
    32    20    21    1
    33    20    30    1
    34    20    22    1
    35    22    23    1
    36    22    42    1
    37    22    43    1
    38    23    24    1
    39    23    44    1
    40    23    45    1
    41    24    25    1
    42    24    46    1
    43    24    47    1
    44    25    30   ar
    45    25    26   ar
    46    26    27   ar
    47    26    48    1
    48    27    28   ar
    49    27    49    1
    50    28    29   ar
    51    28    50    1
    52    29    30   ar
    53    29    51    1
@<TRIPOS>SUBSTRUCTURE
     1 ZINC000550011575        1 TEMP              0 ****  ****    0 ROOT


##########                                Name:    ZINC000020646552
##########                DOCK_Rotatable_Bonds:                   5
##########                         Heavy_Atoms:                  29
##########                    Molecular_Weight:             412.556
##########                DOCK_Rotatable_Bonds:                   5
##########                       Formal_Charge:          -0.0200012
##########                     HBond_Acceptors:                   7
##########                        HBond_Donors:                   0
##########                         Heavy_Atoms:                  29
##########                          Grid_Score:          -32.550663
##########                     Grid_vdw_energy:          -31.878325
##########                      Grid_es_energy:           -0.672337
##########           Internal_energy_repulsive:            8.915733

@<TRIPOS>MOLECULE
ZINC000020646552
 57 60 1 0 0
SMALL
USER_CHARGES


@<TRIPOS>ATOM
      1 C1         -3.2976    3.9993   57.0184 C.3     1  ZINC000020646552    0.0200
      2 N2         -4.7439    3.9288   56.7705 N.3     1  ZINC000020646552   -0.5400
      3 C3         -5.3714    2.8958   57.6054 C.3     1  ZINC000020646552    0.0400
      4 C4         -6.8941    2.9759   57.4529 C.3     1  ZINC000020646552    0.1200
      5 N5         -7.2247    2.9042   56.0216 N.am    1  ZINC000020646552   -0.6100
      6 C6         -8.1387    2.0247   55.5658 C.2     1  ZINC000020646552    0.5300
      7 O7         -8.3978    1.9781   54.3820 O.2     1  ZINC000020646552   -0.5200
      8 C8         -8.8383    1.0990   56.5274 C.3     1  ZINC000020646552   -0.1500
      9 S9         -9.7539   -0.1560   55.5984 S.3     1  ZINC000020646552    0.0500
     10 C10       -10.5119   -1.0287   56.9283 C.ar    1  ZINC000020646552    0.1500
     11 N11       -10.1988   -0.7433   58.1876 N.ar    1  ZINC000020646552   -0.5200
     12 C12       -10.7687   -1.3998   59.1885 C.ar    1  ZINC000020646552    0.3800
     13 C13       -10.3991   -1.0549   60.5830 C.ar    1  ZINC000020646552   -0.0500
     14 C14       -10.9715    0.0535   61.2045 C.ar    1  ZINC000020646552   -0.0700
     15 C15       -10.6242    0.3694   62.5024 C.ar    1  ZINC000020646552   -0.1300
     16 C16        -9.7100   -0.4117   63.1861 C.ar    1  ZINC000020646552   -0.1000
     17 C17        -9.1384   -1.5127   62.5740 C.ar    1  ZINC000020646552   -0.1300
     18 C18        -9.4825   -1.8414   61.2786 C.ar    1  ZINC000020646552   -0.0700
     19 N19       -11.6605   -2.3561   58.9743 N.ar    1  ZINC000020646552   -0.5200
     20 C20       -12.0184   -2.6923   57.7414 C.ar    1  ZINC000020646552    0.2100
     21 C21       -11.4571   -2.0292   56.6743 C.ar    1  ZINC000020646552   -0.2100
     22 C22       -11.8297   -2.3548   55.2543 C.3     1  ZINC000020646552    0.1100
     23 O23       -12.4974   -3.6159   55.1972 O.3     1  ZINC000020646552   -0.3600
     24 C24       -13.5902   -3.7181   56.1170 C.3     1  ZINC000020646552    0.1100
     25 C25       -14.4896   -2.4875   55.9849 C.3     1  ZINC000020646552   -0.1800
     26 C26       -14.3996   -4.9808   55.8148 C.3     1  ZINC000020646552   -0.1400
     27 C27       -13.0309   -3.7884   57.5380 C.3     1  ZINC000020646552   -0.0900
     28 C28        -6.5318    3.8182   55.1007 C.3     1  ZINC000020646552    0.1100
     29 C29        -5.0234    3.7049   55.3458 C.3     1  ZINC000020646552    0.0400
     30 H30        -2.8703    4.8217   56.4450 H       1  ZINC000020646552    0.0700
     31 H31        -3.1188    4.1656   58.0808 H       1  ZINC000020646552    0.0700
     32 H32        -2.8306    3.0627   56.7136 H       1  ZINC000020646552    0.0300
     33 H33        -5.0253    1.9120   57.2883 H       1  ZINC000020646552    0.0400
     34 H34        -5.1013    3.0579   58.6489 H       1  ZINC000020646552    0.0900
     35 H35        -7.3590    2.1418   57.9783 H       1  ZINC000020646552    0.1000
     36 H36        -7.2543    3.9184   57.8651 H       1  ZINC000020646552    0.0800
     37 H37        -8.1006    0.6125   57.1654 H       1  ZINC000020646552    0.1300
     38 H38        -9.5309    1.6717   57.1442 H       1  ZINC000020646552    0.1200
     39 H39       -11.6851    0.6642   60.6715 H       1  ZINC000020646552    0.1400
     40 H40       -11.0669    1.2283   62.9849 H       1  ZINC000020646552    0.1300
     41 H41        -9.4412   -0.1608   64.2015 H       1  ZINC000020646552    0.1300
     42 H42        -8.4249   -2.1188   63.1125 H       1  ZINC000020646552    0.1300
     43 H43        -9.0356   -2.7011   60.8016 H       1  ZINC000020646552    0.1300
     44 H44       -12.4897   -1.5787   54.8669 H       1  ZINC000020646552    0.0800
     45 H45       -10.9272   -2.3960   54.6444 H       1  ZINC000020646552    0.1100
     46 H46       -14.8769   -2.4280   54.9678 H       1  ZINC000020646552    0.0700
     47 H47       -15.3204   -2.5677   56.6860 H       1  ZINC000020646552    0.0700
     48 H48       -13.9122   -1.5900   56.2069 H       1  ZINC000020646552    0.0600
     49 H49       -13.7583   -5.8564   55.9159 H       1  ZINC000020646552    0.0700
     50 H50       -15.2305   -5.0562   56.5162 H       1  ZINC000020646552    0.0800
     51 H51       -14.7867   -4.9294   54.7971 H       1  ZINC000020646552    0.0700
     52 H52       -12.5475   -4.7535   57.6902 H       1  ZINC000020646552    0.1000
     53 H53       -13.8446   -3.6741   58.2542 H       1  ZINC000020646552    0.1000
     54 H54        -6.7573    3.5408   54.0710 H       1  ZINC000020646552    0.0900
     55 H55        -6.8572    4.8416   55.2868 H       1  ZINC000020646552    0.0800
     56 H56        -4.5009    4.4537   54.7505 H       1  ZINC000020646552    0.0900
     57 H57        -4.6822    2.7098   55.0602 H       1  ZINC000020646552    0.0400
@<TRIPOS>BOND
     1     1     2    1
     2     1    30    1
     3     1    31    1
     4     1    32    1
     5     2    29    1
     6     2     3    1
     7     3     4    1
     8     3    33    1
     9     3    34    1
    10     4     5    1
    11     4    35    1
    12     4    36    1
    13     5     6   am
    14     5    28    1
    15     6     7    2
    16     6     8    1
    17     8     9    1
    18     8    37    1
    19     8    38    1
    20     9    10    1
    21    10    21   ar
    22    10    11   ar
    23    11    12   ar
    24    12    13    1
    25    12    19   ar
    26    13    18   ar
    27    13    14   ar
    28    14    15   ar
    29    14    39    1
    30    15    16   ar
    31    15    40    1
    32    16    17   ar
    33    16    41    1
    34    17    18   ar
    35    17    42    1
    36    18    43    1
    37    19    20   ar
    38    20    27    1
    39    20    21   ar
    40    21    22    1
    41    22    23    1
    42    22    44    1
    43    22    45    1
    44    23    24    1
    45    24    25    1
    46    24    26    1
    47    24    27    1
    48    25    46    1
    49    25    47    1
    50    25    48    1
    51    26    49    1
    52    26    50    1
    53    26    51    1
    54    27    52    1
    55    27    53    1
    56    28    29    1
    57    28    54    1
    58    28    55    1
    59    29    56    1
    60    29    57    1
@<TRIPOS>SUBSTRUCTURE
     1 ZINC000020646552        1 TEMP              0 ****  ****    0 ROOT


##########                                Name:    ZINC000081577146
##########                DOCK_Rotatable_Bonds:                   4
##########                         Heavy_Atoms:                  25
##########                    Molecular_Weight:             355.464
##########                DOCK_Rotatable_Bonds:                   4
##########                       Formal_Charge:                0.02
##########                     HBond_Acceptors:                   7
##########                        HBond_Donors:                   0
##########                         Heavy_Atoms:                  25
##########                          Grid_Score:          -32.532341
##########                     Grid_vdw_energy:          -32.961498
##########                      Grid_es_energy:            0.429158
##########           Internal_energy_repulsive:           12.057016

@<TRIPOS>MOLECULE
ZINC000081577146
 46 49 1 0 0
SMALL
USER_CHARGES


@<TRIPOS>ATOM
      1 C1         -9.9206   -0.0268   63.0855 C.3     1  ZINC000081577146   -0.0700
      2 C2         -9.8379   -1.0901   62.0207 C.2     1  ZINC000081577146    0.2900
      3 N3         -9.1964   -2.2025   62.2312 N.2     1  ZINC000081577146   -0.4800
      4 S4         -9.3494   -3.1021   60.7974 S.3     1  ZINC000081577146    0.1900
      5 C5        -10.2854   -1.9058   59.9839 C.2     1  ZINC000081577146    0.2700
      6 N6        -10.7943   -1.9649   58.6991 N.3     1  ZINC000081577146   -0.4300
      7 C7        -12.1191   -1.3331   58.6278 C.3     1  ZINC000081577146    0.0700
      8 C8        -12.6113   -1.3483   57.1787 C.3     1  ZINC000081577146    0.0500
      9 N9        -12.6661   -2.7355   56.6972 N.3     1  ZINC000081577146   -0.5200
     10 C10       -13.2065   -2.7983   55.3327 C.3     1  ZINC000081577146    0.1900
     11 H11       -13.9307   -1.9960   55.1914 H       1  ZINC000081577146    0.0700
     12 C12       -13.8929   -4.1487   55.1176 C.3     1  ZINC000081577146   -0.1500
     13 C13       -12.0836   -2.6419   54.3399 C.2     1  ZINC000081577146    0.1900
     14 N14       -11.6473   -3.5726   53.5381 N.2     1  ZINC000081577146   -0.4500
     15 C15       -10.6433   -3.0753   52.8006 C.2     1  ZINC000081577146   -0.0200
     16 C16       -10.4635   -1.7824   53.1738 C.2     1  ZINC000081577146    0.0000
     17 C17        -9.4648   -0.8387   52.6286 C.ar    1  ZINC000081577146   -0.0200
     18 C18        -9.3427    0.4423   53.1693 C.ar    1  ZINC000081577146   -0.1000
     19 C19        -8.4082    1.3180   52.6561 C.ar    1  ZINC000081577146   -0.1200
     20 C20        -7.5935    0.9290   51.6077 C.ar    1  ZINC000081577146   -0.1100
     21 C21        -7.7098   -0.3392   51.0670 C.ar    1  ZINC000081577146   -0.1100
     22 C22        -8.6359   -1.2267   51.5748 C.ar    1  ZINC000081577146   -0.0900
     23 O23       -11.3766   -1.5221   54.1353 O.3     1  ZINC000081577146   -0.2000
     24 C24       -11.3411   -3.3675   56.7684 C.3     1  ZINC000081577146    0.0600
     25 C25       -10.8489   -3.3523   58.2176 C.3     1  ZINC000081577146    0.0500
     26 N26       -10.4152   -0.9259   60.8531 N.2     1  ZINC000081577146   -0.5400
     27 H27       -10.7993   -0.2018   63.7062 H       1  ZINC000081577146    0.0900
     28 H28        -9.0248   -0.0630   63.7055 H       1  ZINC000081577146    0.0900
     29 H29        -9.9975    0.9534   62.6149 H       1  ZINC000081577146    0.0900
     30 H30       -12.8192   -1.8846   59.2555 H       1  ZINC000081577146    0.0700
     31 H31       -12.0500   -0.3031   58.9777 H       1  ZINC000081577146    0.1100
     32 H32       -13.6063   -0.9062   57.1280 H       1  ZINC000081577146    0.1000
     33 H33       -11.9257   -0.7739   56.5558 H       1  ZINC000081577146    0.0600
     34 H34       -13.1687   -4.9509   55.2588 H       1  ZINC000081577146    0.0800
     35 H35       -14.7052   -4.2618   55.8357 H       1  ZINC000081577146    0.0800
     36 H36       -14.2939   -4.1952   54.1051 H       1  ZINC000081577146    0.0700
     37 H37       -10.0806   -3.6065   52.0472 H       1  ZINC000081577146    0.1900
     38 H38        -9.9784    0.7474   53.9872 H       1  ZINC000081577146    0.1300
     39 H39        -8.3127    2.3096   53.0735 H       1  ZINC000081577146    0.1300
     40 H40        -6.8639    1.6184   51.2094 H       1  ZINC000081577146    0.1300
     41 H41        -7.0713   -0.6364   50.2482 H       1  ZINC000081577146    0.1300
     42 H42        -8.7254   -2.2165   51.1522 H       1  ZINC000081577146    0.1300
     43 H43       -11.4102   -4.3974   56.4186 H       1  ZINC000081577146    0.0900
     44 H44       -10.6410   -2.8159   56.1408 H       1  ZINC000081577146    0.0500
     45 H45        -9.8539   -3.7944   58.2683 H       1  ZINC000081577146    0.1000
     46 H46       -11.5346   -3.9266   58.8405 H       1  ZINC000081577146    0.0800
@<TRIPOS>BOND
     1     1     2    1
     2     1    27    1
     3     1    28    1
     4     1    29    1
     5     2    26    1
     6     2     3    2
     7     3     4    1
     8     4     5    1
     9     5     6    1
    10     5    26    2
    11     6    25    1
    12     6     7    1
    13     7     8    1
    14     7    30    1
    15     7    31    1
    16     8     9    1
    17     8    32    1
    18     8    33    1
    19     9    10    1
    20     9    24    1
    21    10    11    1
    22    10    12    1
    23    10    13    1
    24    12    34    1
    25    12    35    1
    26    12    36    1
    27    13    23    1
    28    13    14    2
    29    14    15    1
    30    15    16    2
    31    15    37    1
    32    16    17    1
    33    16    23    1
    34    17    22   ar
    35    17    18   ar
    36    18    19   ar
    37    18    38    1
    38    19    20   ar
    39    19    39    1
    40    20    21   ar
    41    20    40    1
    42    21    22   ar
    43    21    41    1
    44    22    42    1
    45    24    25    1
    46    24    43    1
    47    24    44    1
    48    25    45    1
    49    25    46    1
@<TRIPOS>SUBSTRUCTURE
     1 ZINC000081577146        1 TEMP              0 ****  ****    0 ROOT


##########                                Name:    ZINC000668548901
##########                DOCK_Rotatable_Bonds:                   9
##########                         Heavy_Atoms:                  26
##########                    Molecular_Weight:             374.464
##########                DOCK_Rotatable_Bonds:                   9
##########                       Formal_Charge:         3.53903e-07
##########                     HBond_Acceptors:                   8
##########                        HBond_Donors:                   3
##########                         Heavy_Atoms:                  26
##########                          Grid_Score:          -32.514629
##########                     Grid_vdw_energy:          -32.029045
##########                      Grid_es_energy:           -0.485584
##########           Internal_energy_repulsive:            9.798086

@<TRIPOS>MOLECULE
ZINC000668548901
 48 50 1 0 0
SMALL
USER_CHARGES


@<TRIPOS>ATOM
      1 O1        -12.9784   -2.2731   56.8430 O.2     1  ZINC000668548901   -0.5700
      2 C2        -12.1644   -3.0884   56.4546 C.2     1  ZINC000668548901    0.7100
      3 N3        -10.9052   -3.0646   56.9345 N.am    1  ZINC000668548901   -0.6800
      4 C4        -10.5341   -2.1006   57.8730 C.ar    1  ZINC000668548901    0.2200
      5 C5        -10.4796   -0.7494   57.5270 C.ar    1  ZINC000668548901   -0.1700
      6 C6        -10.1088    0.1753   58.4797 C.ar    1  ZINC000668548901    0.1200
      7 N7         -9.8061   -0.2005   59.7083 N.ar    1  ZINC000668548901   -0.4300
      8 C8         -9.8448   -1.4728   60.0790 C.ar    1  ZINC000668548901    0.1100
      9 S9         -9.4301   -1.9119   61.7342 S.3     1  ZINC000668548901    0.0900
     10 C10       -10.2859   -0.7048   62.6909 C.ar    1  ZINC000668548901    0.0900
     11 C11        -9.5647    0.2377   63.4167 C.ar    1  ZINC000668548901   -0.1500
     12 C12       -10.2495    1.1798   64.1630 C.ar    1  ZINC000668548901   -0.0700
     13 C13       -11.6376    1.1476   64.1585 C.ar    1  ZINC000668548901   -0.1700
     14 C14       -12.2895    0.1836   63.4150 C.ar    1  ZINC000668548901    0.1000
     15 N15       -11.6105   -0.6995   62.7083 N.ar    1  ZINC000668548901   -0.4200
     16 C16       -10.2150   -2.4619   59.1777 C.ar    1  ZINC000668548901   -0.1800
     17 N17       -12.5227   -4.0194   55.5483 N.am    1  ZINC000668548901   -0.7200
     18 C18       -13.8915   -4.0453   55.0268 C.3     1  ZINC000668548901    0.1700
     19 H19       -14.5038   -3.3314   55.5779 H       1  ZINC000668548901    0.1000
     20 C20       -14.4735   -5.4506   55.1914 C.3     1  ZINC000668548901    0.0600
     21 O21       -14.4813   -5.8039   56.5760 O.3     1  ZINC000668548901   -0.5700
     22 C22       -13.8793   -3.6687   53.5438 C.3     1  ZINC000668548901   -0.1300
     23 H23       -13.4241   -4.4740   52.9674 H       1  ZINC000668548901    0.1000
     24 C24       -13.0734   -2.3808   53.3493 C.3     1  ZINC000668548901   -0.1200
     25 C25       -13.1334   -1.9718   51.8744 C.3     1  ZINC000668548901   -0.1600
     26 C26       -14.5975   -1.8097   51.4571 C.3     1  ZINC000668548901    0.0600
     27 O27       -15.2968   -3.0334   51.6926 O.3     1  ZINC000668548901   -0.3800
     28 C28       -15.3147   -3.4426   53.0618 C.3     1  ZINC000668548901    0.0700
     29 H29       -10.2568   -3.7176   56.6276 H       1  ZINC000668548901    0.4100
     30 H30       -10.7247   -0.4321   56.5241 H       1  ZINC000668548901    0.1500
     31 H31       -10.0651    1.2220   58.2170 H       1  ZINC000668548901    0.1600
     32 H32        -8.4849    0.2337   63.3980 H       1  ZINC000668548901    0.1400
     33 H33        -9.7164    1.9235   64.7368 H       1  ZINC000668548901    0.1400
     34 H34       -12.2019    1.8689   64.7310 H       1  ZINC000668548901    0.1400
     35 H35       -13.3690    0.1547   63.4089 H       1  ZINC000668548901    0.1600
     36 H36       -10.2457   -3.4976   59.4825 H       1  ZINC000668548901    0.1400
     37 H37       -11.8744   -4.6724   55.2415 H       1  ZINC000668548901    0.4000
     38 H38       -15.4930   -5.4690   54.8060 H       1  ZINC000668548901    0.0500
     39 H39       -13.8629   -6.1639   54.6378 H       1  ZINC000668548901    0.0600
     40 H40       -14.8405   -6.6835   56.7555 H       1  ZINC000668548901    0.3800
     41 H41       -13.4984   -1.5881   53.9651 H       1  ZINC000668548901    0.0700
     42 H42       -12.0365   -2.5524   53.6382 H       1  ZINC000668548901    0.0700
     43 H43       -12.6087   -1.0263   51.7368 H       1  ZINC000668548901    0.0800
     44 H44       -12.6637   -2.7424   51.2633 H       1  ZINC000668548901    0.0700
     45 H45       -15.0556   -1.0111   52.0407 H       1  ZINC000668548901    0.0500
     46 H46       -14.6479   -1.5603   50.3972 H       1  ZINC000668548901    0.1000
     47 H47       -15.8819   -4.3685   53.1570 H       1  ZINC000668548901    0.1000
     48 H48       -15.7819   -2.6660   53.6672 H       1  ZINC000668548901    0.0500
@<TRIPOS>BOND
     1     1     2    2
     2     2     3   am
     3     2    17   am
     4     3     4    1
     5     3    29    1
     6     4    16   ar
     7     4     5   ar
     8     5     6   ar
     9     5    30    1
    10     6     7   ar
    11     6    31    1
    12     7     8   ar
    13     8     9    1
    14     8    16   ar
    15     9    10    1
    16    10    15   ar
    17    10    11   ar
    18    11    12   ar
    19    11    32    1
    20    12    13   ar
    21    12    33    1
    22    13    14   ar
    23    13    34    1
    24    14    15   ar
    25    14    35    1
    26    16    36    1
    27    17    18    1
    28    17    37    1
    29    18    19    1
    30    18    20    1
    31    18    22    1
    32    20    21    1
    33    20    38    1
    34    20    39    1
    35    21    40    1
    36    22    23    1
    37    22    28    1
    38    22    24    1
    39    24    25    1
    40    24    41    1
    41    24    42    1
    42    25    26    1
    43    25    43    1
    44    25    44    1
    45    26    27    1
    46    26    45    1
    47    26    46    1
    48    27    28    1
    49    28    47    1
    50    28    48    1
@<TRIPOS>SUBSTRUCTURE
     1 ZINC000668548901        1 TEMP              0 ****  ****    0 ROOT


##########                                Name:    ZINC000328606936
##########                DOCK_Rotatable_Bonds:                   6
##########                         Heavy_Atoms:                  23
##########                    Molecular_Weight:             338.428
##########                DOCK_Rotatable_Bonds:                   6
##########                       Formal_Charge:           0.0100001
##########                     HBond_Acceptors:                   7
##########                        HBond_Donors:                   2
##########                         Heavy_Atoms:                  23
##########                          Grid_Score:          -32.509068
##########                     Grid_vdw_energy:          -30.735245
##########                      Grid_es_energy:           -1.773822
##########           Internal_energy_repulsive:            7.631438

@<TRIPOS>MOLECULE
ZINC000328606936
 45 47 1 0 0
SMALL
USER_CHARGES


@<TRIPOS>ATOM
      1 C1         -7.0364    0.2020   50.8131 C.3     1  <0>        -0.0500
      2 N2         -6.8266    1.1366   51.9269 N.4     1  <0>        -0.3500
      3 H3         -6.3741    0.6551   52.6894 H       1  <0>         0.4200
      4 C4         -8.1231    1.6592   52.3783 C.3     1  <0>        -0.0900
      5 C5         -8.9706    0.5241   52.8927 C.2     1  <0>         0.4900
      6 O6         -9.6985   -0.0875   52.1295 O.co2   1  <0>        -0.6700
      7 O7         -8.9283    0.2175   54.0719 O.co2   1  <0>        -0.6400
      8 C8         -5.9791    2.2498   51.4790 C.3     1  <0>         0.0100
      9 H9         -6.5079    2.8553   50.7429 H       1  <0>         0.1600
     10 C10        -4.6590    1.7138   50.8845 C.3     1  <0>         0.1000
     11 N11        -3.6309    2.6886   51.3176 N.am    1  <0>        -0.6200
     12 C12        -2.5873    3.1601   50.6070 C.2     1  <0>         0.6200
     13 O13        -1.8239    3.9648   51.1080 O.2     1  <0>        -0.5100
     14 C14        -2.3715    2.7038   49.2308 C.2     1  <0>        -0.2800
     15 C15        -2.1971    3.5116   48.1493 C.2     1  <0>        -0.0300
     16 C16        -2.0118    2.8308   46.9600 C.2     1  <0>        -0.1200
     17 C17        -2.0378    1.4849   47.0888 C.2     1  <0>        -0.1900
     18 C18        -1.8593    0.5117   45.9387 C.3     1  <0>        -0.0500
     19 C19        -2.0657    1.2635   44.6213 C.3     1  <0>        -0.1200
     20 C20        -1.2067    2.5313   44.6310 C.3     1  <0>        -0.1200
     21 C21        -1.7983    3.5325   45.6249 C.3     1  <0>        -0.0600
     22 S22        -2.2892    1.0274   48.7146 S.3     1  <0>         0.2000
     23 C23        -4.0103    3.0276   52.7089 C.3     1  <0>         0.0600
     24 C24        -5.5538    3.1176   52.6816 C.3     1  <0>         0.0800
     25 H25        -5.9730    2.7173   53.6046 H       1  <0>         0.1000
     26 O26        -5.9692    4.4721   52.4947 O.3     1  <0>        -0.5400
     27 H27        -7.5252    0.7221   49.9894 H       1  <0>         0.1100
     28 H28        -6.0743   -0.1858   50.4782 H       1  <0>         0.1100
     29 H29        -7.6652   -0.6240   51.1455 H       1  <0>         0.1600
     30 H30        -7.9646    2.3847   53.1762 H       1  <0>         0.1200
     31 H31        -8.6308    2.1423   51.5435 H       1  <0>         0.1300
     32 H32        -4.4365    0.7242   51.2836 H       1  <0>         0.1000
     33 H33        -4.7176    1.6814   49.7965 H       1  <0>         0.1200
     34 H34        -2.2032    4.5897   48.2142 H       1  <0>         0.1500
     35 H35        -0.8533    0.0929   45.9669 H       1  <0>         0.0900
     36 H36        -2.5934   -0.2899   46.0210 H       1  <0>         0.0800
     37 H37        -1.7677    0.6274   43.7877 H       1  <0>         0.0700
     38 H38        -3.1160    1.5354   44.5171 H       1  <0>         0.0700
     39 H39        -0.1890    2.2793   44.9295 H       1  <0>         0.0700
     40 H40        -1.1959    2.9715   43.6339 H       1  <0>         0.0700
     41 H41        -2.7526    3.9008   45.2482 H       1  <0>         0.0800
     42 H42        -1.1092    4.3665   45.7574 H       1  <0>         0.0800
     43 H43        -3.6866    2.2432   53.3930 H       1  <0>         0.1000
     44 H44        -3.5796    3.9863   52.9975 H       1  <0>         0.1000
     45 H45        -6.9244    4.5795   52.3889 H       1  <0>         0.4000
@<TRIPOS>BOND
     1     1     2    1
     2     1    27    1
     3     1    28    1
     4     1    29    1
     5     2     3    1
     6     2     4    1
     7     2     8    1
     8     4     5    1
     9     4    30    1
    10     4    31    1
    11     5     6   ar
    12     5     7   ar
    13     8     9    1
    14     8    24    1
    15     8    10    1
    16    10    11    1
    17    10    32    1
    18    10    33    1
    19    11    12   am
    20    11    23    1
    21    12    13    2
    22    12    14    1
    23    14    22    1
    24    14    15    2
    25    15    16    1
    26    15    34    1
    27    16    21    1
    28    16    17    2
    29    17    18    1
    30    17    22    1
    31    18    19    1
    32    18    35    1
    33    18    36    1
    34    19    20    1
    35    19    37    1
    36    19    38    1
    37    20    21    1
    38    20    39    1
    39    20    40    1
    40    21    41    1
    41    21    42    1
    42    23    24    1
    43    23    43    1
    44    23    44    1
    45    24    25    1
    46    24    26    1
    47    26    45    1
@<TRIPOS>SUBSTRUCTURE
     1 <0>         1 TEMP              0 ****  ****    0 ROOT


##########                                Name:    ZINC000195331548
##########                DOCK_Rotatable_Bonds:                   7
##########                         Heavy_Atoms:                  26
##########                    Molecular_Weight:             378.539
##########                DOCK_Rotatable_Bonds:                   7
##########                       Formal_Charge:          -0.0100004
##########                     HBond_Acceptors:                   7
##########                        HBond_Donors:                   2
##########                         Heavy_Atoms:                  26
##########                          Grid_Score:          -32.499371
##########                     Grid_vdw_energy:          -31.373158
##########                      Grid_es_energy:           -1.126214
##########           Internal_energy_repulsive:           29.299173

@<TRIPOS>MOLECULE
ZINC000195331548
 56 58 1 0 0
SMALL
USER_CHARGES


@<TRIPOS>ATOM
      1 C1         -4.4412    1.7521   50.7695 C.3     1  ZINC000195331548   -0.0800
      2 C2         -3.8522    2.5301   51.9179 C.2     1  ZINC000195331548    0.0700
      3 C3         -2.6607    3.1314   51.8482 C.2     1  ZINC000195331548   -0.2600
      4 S4         -2.3627    3.9252   53.3927 S.3     1  ZINC000195331548    0.1100
      5 C5         -3.8661    3.3626   53.9815 C.2     1  ZINC000195331548    0.0600
      6 C6         -4.4099    3.6371   55.3600 C.3     1  ZINC000195331548   -0.0100
      7 H7         -4.1231    4.6415   55.6715 H       1  ZINC000195331548    0.1100
      8 C8         -3.8415    2.6137   56.3469 C.3     1  ZINC000195331548   -0.1200
      9 C9         -4.4451    2.8623   57.7320 C.3     1  ZINC000195331548   -0.1100
     10 C10        -5.9701    2.7727   57.6420 C.3     1  ZINC000195331548    0.0500
     11 N11        -6.4649    3.7717   56.6862 N.3     1  ZINC000195331548   -0.5200
     12 C12        -7.9335    3.8090   56.6767 C.3     1  ZINC000195331548    0.0400
     13 C13        -8.4703    2.4109   56.5096 C.2     1  ZINC000195331548    0.5100
     14 O14        -8.4759    1.8904   55.4147 O.2     1  ZINC000195331548   -0.4400
     15 N15        -8.9442    1.7389   57.5776 N.am    1  ZINC000195331548   -0.7000
     16 C16        -9.4257    0.4891   57.4280 C.2     1  ZINC000195331548    0.6900
     17 O17        -9.4341   -0.0317   56.3298 O.2     1  ZINC000195331548   -0.5300
     18 N18        -9.8981   -0.1835   58.4962 N.am    1  ZINC000195331548   -0.7300
     19 C19       -10.4200   -1.5428   58.3338 C.3     1  ZINC000195331548    0.1700
     20 H20        -9.7305   -2.1262   57.7237 H       1  ZINC000195331548    0.0900
     21 C21       -11.7859   -1.4859   57.6470 C.3     1  ZINC000195331548   -0.1300
     22 C22       -12.7538   -0.6669   58.5033 C.3     1  ZINC000195331548   -0.1200
     23 C23       -12.9007   -1.3243   59.8771 C.3     1  ZINC000195331548   -0.1200
     24 C24       -11.5348   -1.3811   60.5640 C.3     1  ZINC000195331548   -0.1100
     25 C25       -10.5669   -2.2001   59.7076 C.3     1  ZINC000195331548   -0.1000
     26 H26       -10.9552   -3.2114   59.5868 H       1  ZINC000195331548    0.0900
     27 C27        -9.2009   -2.2568   60.3945 C.3     1  ZINC000195331548   -0.1500
     28 C28        -5.9360    3.5250   55.3388 C.3     1  ZINC000195331548    0.0600
     29 N29        -4.4700    2.6736   53.0730 N.2     1  ZINC000195331548   -0.4700
     30 H30        -5.0347    2.4196   50.1448 H       1  ZINC000195331548    0.0800
     31 H31        -3.6375    1.3172   50.1752 H       1  ZINC000195331548    0.0800
     32 H32        -5.0772    0.9566   51.1579 H       1  ZINC000195331548    0.0800
     33 H33        -1.9991    3.1337   50.9945 H       1  ZINC000195331548    0.1800
     34 H34        -4.0950    1.6072   56.0144 H       1  ZINC000195331548    0.0600
     35 H35        -2.7577    2.7188   56.3967 H       1  ZINC000195331548    0.0700
     36 H36        -4.0768    2.1104   58.4297 H       1  ZINC000195331548    0.0800
     37 H37        -4.1588    3.8546   58.0810 H       1  ZINC000195331548    0.0800
     38 H38        -6.4037    2.9634   58.6237 H       1  ZINC000195331548    0.0800
     39 H39        -6.2561    1.7759   57.3063 H       1  ZINC000195331548    0.0400
     40 H40        -8.2757    4.4308   55.8494 H       1  ZINC000195331548    0.1200
     41 H41        -8.2925    4.2260   57.6175 H       1  ZINC000195331548    0.0700
     42 H42        -8.9386    2.1549   58.4538 H       1  ZINC000195331548    0.4100
     43 H43        -9.8926    0.2325   59.3725 H       1  ZINC000195331548    0.4000
     44 H44       -12.1742   -2.4973   57.5262 H       1  ZINC000195331548    0.0700
     45 H45       -11.6813   -1.0177   56.6682 H       1  ZINC000195331548    0.0700
     46 H46       -13.7270   -0.6266   58.0139 H       1  ZINC000195331548    0.0600
     47 H47       -12.3656    0.3443   58.6241 H       1  ZINC000195331548    0.0600
     48 H48       -13.5902   -0.7408   60.4871 H       1  ZINC000195331548    0.0600
     49 H49       -13.2890   -2.3356   59.7563 H       1  ZINC000195331548    0.0600
     50 H50       -11.1465   -0.3697   60.6847 H       1  ZINC000195331548    0.0600
     51 H51       -11.6394   -1.8494   61.5427 H       1  ZINC000195331548    0.0700
     52 H52        -8.8126   -1.2455   60.5153 H       1  ZINC000195331548    0.0500
     53 H53        -9.3056   -2.7251   61.3732 H       1  ZINC000195331548    0.0600
     54 H54        -8.5114   -2.8403   59.7844 H       1  ZINC000195331548    0.0600
     55 H55        -6.2222    2.5246   55.0138 H       1  ZINC000195331548    0.0400
     56 H56        -6.3448    4.2621   54.6476 H       1  ZINC000195331548    0.0900
@<TRIPOS>BOND
     1     1     2    1
     2     1    30    1
     3     1    31    1
     4     1    32    1
     5     2    29    1
     6     2     3    2
     7     3     4    1
     8     3    33    1
     9     4     5    1
    10     5     6    1
    11     5    29    2
    12     6     7    1
    13     6    28    1
    14     6     8    1
    15     8     9    1
    16     8    34    1
    17     8    35    1
    18     9    10    1
    19     9    36    1
    20     9    37    1
    21    10    11    1
    22    10    38    1
    23    10    39    1
    24    11    12    1
    25    11    28    1
    26    12    13    1
    27    12    40    1
    28    12    41    1
    29    13    14    2
    30    13    15   am
    31    15    16   am
    32    15    42    1
    33    16    17    2
    34    16    18   am
    35    18    19    1
    36    18    43    1
    37    19    20    1
    38    19    25    1
    39    19    21    1
    40    21    22    1
    41    21    44    1
    42    21    45    1
    43    22    23    1
    44    22    46    1
    45    22    47    1
    46    23    24    1
    47    23    48    1
    48    23    49    1
    49    24    25    1
    50    24    50    1
    51    24    51    1
    52    25    26    1
    53    25    27    1
    54    27    52    1
    55    27    53    1
    56    27    54    1
    57    28    55    1
    58    28    56    1
@<TRIPOS>SUBSTRUCTURE
     1 ZINC000195331548        1 TEMP              0 ****  ****    0 ROOT


##########                                Name:    ZINC000002873519
##########                DOCK_Rotatable_Bonds:                   5
##########                         Heavy_Atoms:                  25
##########                    Molecular_Weight:             375.207
##########                DOCK_Rotatable_Bonds:                   5
##########                       Formal_Charge:               -0.02
##########                     HBond_Acceptors:                   6
##########                        HBond_Donors:                   0
##########                         Heavy_Atoms:                  25
##########                          Grid_Score:          -32.491386
##########                     Grid_vdw_energy:          -32.488850
##########                      Grid_es_energy:           -0.002538
##########           Internal_energy_repulsive:           11.947913

@<TRIPOS>MOLECULE
ZINC000002873519
 37 39 1 0 0
SMALL
USER_CHARGES


@<TRIPOS>ATOM
      1 C1        -14.4492   -6.1153   56.9263 C.3     1  ZINC000002873519   -0.1500
      2 C2        -14.8916   -4.8337   57.5844 C.2     1  ZINC000002873519    0.4500
      3 O3        -15.7525   -4.8557   58.4320 O.2     1  ZINC000002873519   -0.4800
      4 O4        -14.3289   -3.6674   57.2290 O.3     1  ZINC000002873519   -0.2900
      5 C5        -13.6623   -3.6398   56.0470 C.ar    1  ZINC000002873519    0.1200
      6 C6        -14.3620   -3.5466   54.8555 C.ar    1  ZINC000002873519   -0.1100
      7 C7        -13.6831   -3.5179   53.6520 C.ar    1  ZINC000002873519   -0.0800
      8 C8        -12.2979   -3.5819   53.6242 C.ar    1  ZINC000002873519   -0.0400
      9 Cl9       -11.4619   -3.5441   52.1032 Cl      1  ZINC000002873519   -0.0500
     10 C10       -11.5820   -3.6750   54.7982 C.ar    1  ZINC000002873519   -0.0800
     11 C11       -12.2568   -3.6997   56.0265 C.ar    1  ZINC000002873519   -0.0700
     12 C12       -11.5051   -3.7979   57.2784 C.2     1  ZINC000002873519    0.0400
     13 C13       -11.4312   -2.7104   58.1266 C.2     1  ZINC000002873519   -0.1900
     14 C14       -10.7234   -2.6157   59.4151 C.2     1  ZINC000002873519   -0.2000
     15 C15       -10.9350   -1.3652   59.8768 C.2     1  ZINC000002873519    0.1200
     16 C16       -10.3981   -0.8453   61.1501 C.ar    1  ZINC000002873519   -0.0400
     17 C17        -9.6516   -1.6768   61.9882 C.ar    1  ZINC000002873519   -0.0800
     18 C18        -9.1531   -1.1850   63.1761 C.ar    1  ZINC000002873519   -0.1100
     19 C19        -9.3914    0.1301   63.5391 C.ar    1  ZINC000002873519   -0.0200
     20 Cl20       -8.7602    0.7414   65.0362 Cl      1  ZINC000002873519   -0.0600
     21 C21       -10.1307    0.9597   62.7125 C.ar    1  ZINC000002873519   -0.1100
     22 C22       -10.6296    0.4819   61.5189 C.ar    1  ZINC000002873519   -0.0800
     23 O23       -11.6990   -0.6518   59.0255 O.3     1  ZINC000002873519   -0.2600
     24 C24       -12.0375   -1.3778   57.9448 C.2     1  ZINC000002873519    0.5200
     25 O25       -12.7180   -1.0100   57.0055 O.2     1  ZINC000002873519   -0.4200
     26 H26       -15.0598   -6.2993   56.0424 H       1  ZINC000002873519    0.1100
     27 H27       -13.4026   -6.0312   56.6340 H       1  ZINC000002873519    0.1000
     28 H28       -14.5654   -6.9423   57.6268 H       1  ZINC000002873519    0.1100
     29 H29       -15.4408   -3.4965   54.8669 H       1  ZINC000002873519    0.1500
     30 H30       -14.2351   -3.4455   52.7267 H       1  ZINC000002873519    0.1500
     31 H31       -10.5034   -3.7250   54.7720 H       1  ZINC000002873519    0.1500
     32 H32       -11.0083   -4.7208   57.5390 H       1  ZINC000002873519    0.1500
     33 H33       -10.1491   -3.3937   59.8959 H       1  ZINC000002873519    0.1700
     34 H34        -9.4657   -2.7028   61.7066 H       1  ZINC000002873519    0.1400
     35 H35        -8.5757   -1.8270   63.8251 H       1  ZINC000002873519    0.1400
     36 H36       -10.3134    1.9842   63.0014 H       1  ZINC000002873519    0.1400
     37 H37       -11.2060    1.1298   60.8752 H       1  ZINC000002873519    0.1400
@<TRIPOS>BOND
     1     1     2    1
     2     1    26    1
     3     1    27    1
     4     1    28    1
     5     2     3    2
     6     2     4    1
     7     4     5    1
     8     5    11   ar
     9     5     6   ar
    10     6     7   ar
    11     6    29    1
    12     7     8   ar
    13     7    30    1
    14     8     9    1
    15     8    10   ar
    16    10    11   ar
    17    10    31    1
    18    11    12    1
    19    12    13    2
    20    12    32    1
    21    13    24    1
    22    13    14    1
    23    14    15    2
    24    14    33    1
    25    15    16    1
    26    15    23    1
    27    16    22   ar
    28    16    17   ar
    29    17    18   ar
    30    17    34    1
    31    18    19   ar
    32    18    35    1
    33    19    20    1
    34    19    21   ar
    35    21    22   ar
    36    21    36    1
    37    22    37    1
    38    23    24    1
    39    24    25    2
@<TRIPOS>SUBSTRUCTURE
     1 ZINC000002873519        1 TEMP              0 ****  ****    0 ROOT


##########                                Name:    ZINC001023148918
##########                DOCK_Rotatable_Bonds:                   6
##########                         Heavy_Atoms:                  25
##########                    Molecular_Weight:             348.402
##########                DOCK_Rotatable_Bonds:                   6
##########                       Formal_Charge:           0.0199999
##########                     HBond_Acceptors:                   8
##########                        HBond_Donors:                   2
##########                         Heavy_Atoms:                  25
##########                          Grid_Score:          -32.464031
##########                     Grid_vdw_energy:          -30.726967
##########                      Grid_es_energy:           -1.737064
##########           Internal_energy_repulsive:           13.327820

@<TRIPOS>MOLECULE
ZINC001023148918
 49 52 1 0 0
SMALL
USER_CHARGES


@<TRIPOS>ATOM
      1 C1        -10.6015   -2.2385   52.8700 C.3     1  ZINC001023148918   -0.0700
      2 C2        -10.1797   -0.8400   52.4992 C.2     1  ZINC001023148918    0.0200
      3 N3        -10.9559    0.2126   52.4549 N.2     1  ZINC001023148918   -0.2700
      4 N4        -10.2944    1.2561   52.1038 N.pl3   1  ZINC001023148918   -0.2500
      5 C5        -10.8557    2.6010   51.9548 C.3     1  ZINC001023148918    0.0800
      6 C6         -8.9875    0.9204   51.8907 C.2     1  ZINC001023148918   -0.0400
      7 C7         -7.9001    1.8217   51.4774 C.2     1  ZINC001023148918    0.6000
      8 O8         -8.1538    2.8348   50.8538 O.2     1  ZINC001023148918   -0.5300
      9 N9         -6.6231    1.5248   51.7899 N.am    1  ZINC001023148918   -0.7000
     10 C10        -5.5407    2.4221   51.3785 C.3     1  ZINC001023148918    0.1500
     11 H11        -5.9397    3.3417   50.9505 H       1  ZINC001023148918    0.1200
     12 C12        -4.5825    1.7177   50.3857 C.3     1  ZINC001023148918    0.1000
     13 N13        -3.2985    2.4270   50.5329 N.am    1  ZINC001023148918   -0.6200
     14 C14        -2.3275    2.4950   49.6007 C.2     1  ZINC001023148918    0.5400
     15 O15        -1.3081    3.1106   49.8306 O.2     1  ZINC001023148918   -0.5200
     16 C16        -2.5084    1.8060   48.2727 C.3     1  ZINC001023148918   -0.1400
     17 H17        -3.3502    1.1145   48.3095 H       1  ZINC001023148918    0.1100
     18 C18        -1.2104    1.0692   47.8549 C.3     1  ZINC001023148918   -0.1400
     19 C19        -0.8198    1.7845   46.5268 C.3     1  ZINC001023148918    0.0600
     20 H20         0.2292    1.7017   46.2424 H       1  ZINC001023148918    0.1300
     21 C21        -1.8417    1.2730   45.4675 C.3     1  ZINC001023148918   -0.1500
     22 C22        -3.1501    1.9972   45.8754 C.3     1  ZINC001023148918   -0.1500
     23 C23        -2.7006    2.8493   47.1313 C.3     1  ZINC001023148918    0.0900
     24 H24        -3.3312    3.7075   47.3636 H       1  ZINC001023148918    0.1400
     25 O25        -1.3032    3.1442   46.7819 O.3     1  ZINC001023148918   -0.3600
     26 C26        -3.2531    3.0485   51.8645 C.3     1  ZINC001023148918    0.0700
     27 C27        -4.5903    2.7281   52.5661 C.3     1  ZINC001023148918    0.0900
     28 H28        -4.4878    1.8559   53.2117 H       1  ZINC001023148918    0.0800
     29 O29        -5.0525    3.8556   53.3124 O.3     1  ZINC001023148918   -0.5500
     30 C30        -8.8896   -0.4360   52.1477 C.2     1  ZINC001023148918   -0.1800
     31 H31       -10.4967   -2.3763   53.9461 H       1  ZINC001023148918    0.0800
     32 H32       -11.6419   -2.3921   52.5835 H       1  ZINC001023148918    0.0700
     33 H33        -9.9708   -2.9584   52.3483 H       1  ZINC001023148918    0.0800
     34 H34       -10.8470    3.1074   52.9201 H       1  ZINC001023148918    0.0900
     35 H35       -10.2567    3.1678   51.2420 H       1  ZINC001023148918    0.1100
     36 H36       -11.8808    2.5288   51.5916 H       1  ZINC001023148918    0.0900
     37 H37        -6.4209    0.7170   52.2871 H       1  ZINC001023148918    0.4100
     38 H38        -4.4678    0.6666   50.6503 H       1  ZINC001023148918    0.0800
     39 H39        -4.9548    1.8146   49.3658 H       1  ZINC001023148918    0.0900
     40 H40        -0.4327    1.2003   48.6073 H       1  ZINC001023148918    0.0800
     41 H41        -1.4060    0.0111   47.6806 H       1  ZINC001023148918    0.0900
     42 H42        -1.5355    1.5654   44.4631 H       1  ZINC001023148918    0.0800
     43 H43        -1.9611    0.1918   45.5367 H       1  ZINC001023148918    0.0800
     44 H44        -3.4959    2.6503   45.0742 H       1  ZINC001023148918    0.0800
     45 H45        -3.9213    1.2768   46.1479 H       1  ZINC001023148918    0.0800
     46 H46        -2.4242    2.6344   52.4387 H       1  ZINC001023148918    0.0800
     47 H47        -3.1361    4.1276   51.7661 H       1  ZINC001023148918    0.0900
     48 H48        -5.2498    3.6601   54.2387 H       1  ZINC001023148918    0.3900
     49 H49        -8.0052   -1.0525   52.0838 H       1  ZINC001023148918    0.1600
@<TRIPOS>BOND
     1     1     2    1
     2     1    31    1
     3     1    32    1
     4     1    33    1
     5     2    30    1
     6     2     3    2
     7     3     4    1
     8     4     5    1
     9     4     6    1
    10     5    34    1
    11     5    35    1
    12     5    36    1
    13     6     7    1
    14     6    30    2
    15     7     8    2
    16     7     9   am
    17     9    10    1
    18     9    37    1
    19    10    11    1
    20    10    27    1
    21    10    12    1
    22    12    13    1
    23    12    38    1
    24    12    39    1
    25    13    14   am
    26    13    26    1
    27    14    15    2
    28    14    16    1
    29    16    17    1
    30    16    23    1
    31    16    18    1
    32    18    19    1
    33    18    40    1
    34    18    41    1
    35    19    20    1
    36    19    25    1
    37    19    21    1
    38    21    22    1
    39    21    42    1
    40    21    43    1
    41    22    23    1
    42    22    44    1
    43    22    45    1
    44    23    24    1
    45    23    25    1
    46    26    27    1
    47    26    46    1
    48    26    47    1
    49    27    28    1
    50    27    29    1
    51    29    48    1
    52    30    49    1
@<TRIPOS>SUBSTRUCTURE
     1 ZINC001023148918        1 TEMP              0 ****  ****    0 ROOT


##########                                Name:    ZINC000053543817
##########                DOCK_Rotatable_Bonds:                   7
##########                         Heavy_Atoms:                  25
##########                    Molecular_Weight:             350.458
##########                DOCK_Rotatable_Bonds:                   7
##########                       Formal_Charge:           0.0199998
##########                     HBond_Acceptors:                   6
##########                        HBond_Donors:                   2
##########                         Heavy_Atoms:                  25
##########                          Grid_Score:          -32.440361
##########                     Grid_vdw_energy:          -33.225998
##########                      Grid_es_energy:            0.785637
##########           Internal_energy_repulsive:           33.968327

@<TRIPOS>MOLECULE
ZINC000053543817
 55 56 1 0 0
SMALL
USER_CHARGES


@<TRIPOS>ATOM
      1 C1        -11.7225   -3.1133   53.7914 C.3     1  ZINC000053543817   -0.0700
      2 C2        -11.3439   -2.8253   55.2214 C.2     1  ZINC000053543817   -0.0200
      3 C3        -11.1209   -1.6042   55.7464 C.2     1  ZINC000053543817   -0.1800
      4 C4        -10.7979   -1.8011   57.1010 C.2     1  ZINC000053543817   -0.1900
      5 C5        -10.8414   -3.1294   57.3316 C.2     1  ZINC000053543817    0.0000
      6 C6        -10.5562   -3.7608   58.6725 C.3     1  ZINC000053543817   -0.0300
      7 C7        -10.6382   -2.6716   59.7485 C.3     1  ZINC000053543817   -0.0500
      8 C8        -12.0939   -2.2324   59.9193 C.3     1  ZINC000053543817   -0.1500
      9 C9        -10.1138   -3.2251   61.0750 C.3     1  ZINC000053543817   -0.1400
     10 C10        -9.7890   -1.4695   59.3263 C.3     1  ZINC000053543817   -0.1200
     11 C11       -10.4581   -0.7642   58.1396 C.3     1  ZINC000053543817    0.2200
     12 H12       -11.3686   -0.2669   58.4740 H       1  ZINC000053543817    0.1000
     13 N13        -9.5379    0.2229   57.5694 N.am    1  ZINC000053543817   -0.7100
     14 C14        -9.6663    1.5264   57.8872 C.2     1  ZINC000053543817    0.5100
     15 O15       -10.5447    1.8823   58.6439 O.2     1  ZINC000053543817   -0.5300
     16 C16        -8.7186    2.5414   57.3020 C.3     1  ZINC000053543817    0.1400
     17 H17        -8.6080    3.3765   57.9937 H       1  ZINC000053543817    0.1200
     18 C18        -9.2755    3.0516   55.9715 C.3     1  ZINC000053543817   -0.1600
     19 N19        -7.4123    1.9172   57.0774 N.am    1  ZINC000053543817   -0.7000
     20 C20        -6.2873    2.6521   57.1818 C.2     1  ZINC000053543817    0.6600
     21 O21        -6.3567    3.8328   57.4606 O.2     1  ZINC000053543817   -0.5700
     22 O22        -5.0869    2.0781   56.9770 O.3     1  ZINC000053543817   -0.3600
     23 C23        -3.9195    2.9346   57.0859 C.3     1  ZINC000053543817    0.1400
     24 C24        -2.6574    2.1133   56.8150 C.3     1  ZINC000053543817   -0.1800
     25 C25        -4.0205    4.0672   56.0623 C.3     1  ZINC000053543817   -0.1400
     26 C26        -3.8504    3.5258   58.4954 C.3     1  ZINC000053543817   -0.1800
     27 O27       -11.1771   -3.7431   56.1906 O.3     1  ZINC000053543817   -0.1700
     28 H28       -11.8423   -4.1883   53.6568 H       1  ZINC000053543817    0.0800
     29 H29       -12.6607   -2.6109   53.5557 H       1  ZINC000053543817    0.0800
     30 H30       -10.9385   -2.7491   53.1275 H       1  ZINC000053543817    0.0800
     31 H31       -11.1787   -0.6587   55.2277 H       1  ZINC000053543817    0.1400
     32 H32       -11.2957   -4.5350   58.8775 H       1  ZINC000053543817    0.0900
     33 H33        -9.5571   -4.1963   58.6672 H       1  ZINC000053543817    0.0900
     34 H34       -12.6984   -3.0877   60.2212 H       1  ZINC000053543817    0.0600
     35 H35       -12.1523   -1.4580   60.6843 H       1  ZINC000053543817    0.0600
     36 H36       -12.4678   -1.8386   58.9743 H       1  ZINC000053543817    0.0600
     37 H37        -9.0770   -3.5385   60.9534 H       1  ZINC000053543817    0.0600
     38 H38       -10.1719   -2.4509   61.8401 H       1  ZINC000053543817    0.0600
     39 H39       -10.7189   -4.0801   61.3766 H       1  ZINC000053543817    0.0600
     40 H40        -9.7030   -0.7739   60.1611 H       1  ZINC000053543817    0.0800
     41 H41        -8.7960   -1.8109   59.0336 H       1  ZINC000053543817    0.0700
     42 H42        -8.8362   -0.0617   56.9632 H       1  ZINC000053543817    0.4000
     43 H43       -10.2474    3.5160   56.1386 H       1  ZINC000053543817    0.0800
     44 H44        -8.5900    3.7858   55.5482 H       1  ZINC000053543817    0.0800
     45 H45        -9.3860    2.2165   55.2798 H       1  ZINC000053543817    0.0700
     46 H46        -7.3571    0.9750   56.8537 H       1  ZINC000053543817    0.4200
     47 H47        -2.7065    1.6921   55.8108 H       1  ZINC000053543817    0.0600
     48 H48        -1.7809    2.7562   56.8968 H       1  ZINC000053543817    0.0700
     49 H49        -2.5854    1.3064   57.5443 H       1  ZINC000053543817    0.0900
     50 H50        -4.9196    4.6523   56.2553 H       1  ZINC000053543817    0.0700
     51 H51        -3.1440    4.7101   56.1441 H       1  ZINC000053543817    0.0800
     52 H52        -4.0697    3.6460   55.0581 H       1  ZINC000053543817    0.0700
     53 H53        -3.7785    2.7189   59.2247 H       1  ZINC000053543817    0.0900
     54 H54        -2.9741    4.1687   58.5773 H       1  ZINC000053543817    0.0700
     55 H55        -4.7496    4.1108   58.6884 H       1  ZINC000053543817    0.0600
@<TRIPOS>BOND
     1     1     2    1
     2     1    28    1
     3     1    29    1
     4     1    30    1
     5     2    27    1
     6     2     3    2
     7     3     4    1
     8     3    31    1
     9     4    11    1
    10     4     5    2
    11     5     6    1
    12     5    27    1
    13     6     7    1
    14     6    32    1
    15     6    33    1
    16     7     8    1
    17     7     9    1
    18     7    10    1
    19     8    34    1
    20     8    35    1
    21     8    36    1
    22     9    37    1
    23     9    38    1
    24     9    39    1
    25    10    11    1
    26    10    40    1
    27    10    41    1
    28    11    12    1
    29    11    13    1
    30    13    14   am
    31    13    42    1
    32    14    15    2
    33    14    16    1
    34    16    17    1
    35    16    18    1
    36    16    19    1
    37    18    43    1
    38    18    44    1
    39    18    45    1
    40    19    20   am
    41    19    46    1
    42    20    21    2
    43    20    22    1
    44    22    23    1
    45    23    24    1
    46    23    25    1
    47    23    26    1
    48    24    47    1
    49    24    48    1
    50    24    49    1
    51    25    50    1
    52    25    51    1
    53    25    52    1
    54    26    53    1
    55    26    54    1
    56    26    55    1
@<TRIPOS>SUBSTRUCTURE
     1 ZINC000053543817        1 TEMP              0 ****  ****    0 ROOT


##########                                Name:    ZINC000450219577
##########                DOCK_Rotatable_Bonds:                   8
##########                         Heavy_Atoms:                  26
##########                    Molecular_Weight:             353.421
##########                DOCK_Rotatable_Bonds:                   8
##########                       Formal_Charge:          -0.0199997
##########                     HBond_Acceptors:                   6
##########                        HBond_Donors:                   1
##########                         Heavy_Atoms:                  26
##########                          Grid_Score:          -32.420712
##########                     Grid_vdw_energy:          -31.273449
##########                      Grid_es_energy:           -1.147263
##########           Internal_energy_repulsive:           36.363373

@<TRIPOS>MOLECULE
ZINC000450219577
 49 51 1 0 0
SMALL
USER_CHARGES


@<TRIPOS>ATOM
      1 C1        -11.6483    1.2865   55.3264 C.3     1  ZINC000450219577   -0.1800
      2 C2        -10.3413    0.5189   55.1171 C.3     1  ZINC000450219577    0.1200
      3 C3        -10.4095   -0.2541   53.7985 C.3     1  ZINC000450219577   -0.1800
      4 C4         -9.1726    1.5051   55.0703 C.3     1  ZINC000450219577   -0.1400
      5 O5        -10.1457   -0.4119   56.2142 O.3     1  ZINC000450219577   -0.3400
      6 C6        -11.0901   -1.3485   56.3945 C.2     1  ZINC000450219577    0.4700
      7 O7        -12.0437   -1.3953   55.6539 O.2     1  ZINC000450219577   -0.5000
      8 C8        -10.9611   -2.3415   57.5207 C.3     1  ZINC000450219577    0.2000
      9 H9        -10.0781   -2.9600   57.3603 H       1  ZINC000450219577    0.1400
     10 N10       -10.8307   -1.6244   58.7915 N.am    1  ZINC000450219577   -0.7100
     11 C11       -10.3169   -2.2503   59.8689 C.2     1  ZINC000450219577    0.5800
     12 O12        -9.9630   -3.4103   59.7865 O.2     1  ZINC000450219577   -0.5200
     13 C13       -10.1836   -1.5262   61.1508 C.ar    1  ZINC000450219577   -0.2500
     14 C14       -11.0513   -0.4784   61.4788 C.ar    1  ZINC000450219577    0.1900
     15 N15       -10.8965    0.1413   62.6357 N.ar    1  ZINC000450219577   -0.5100
     16 C16        -9.9427   -0.2147   63.4738 C.ar    1  ZINC000450219577    0.3800
     17 C17        -9.8073    0.5231   64.7808 C.3     1  ZINC000450219577   -0.1100
     18 C18        -9.8947    2.0502   64.7423 C.3     1  ZINC000450219577   -0.1500
     19 C19       -11.0496    1.2323   65.3238 C.3     1  ZINC000450219577   -0.1500
     20 N20        -9.1041   -1.1962   63.2050 N.ar    1  ZINC000450219577   -0.5200
     21 C21        -9.1899   -1.8730   62.0732 C.ar    1  ZINC000450219577    0.2200
     22 C22       -12.1871   -3.2169   57.5615 C.ar    1  ZINC000450219577   -0.1100
     23 C23       -12.1440   -4.4920   57.0292 C.ar    1  ZINC000450219577   -0.1000
     24 C24       -13.2685   -5.2950   57.0667 C.ar    1  ZINC000450219577   -0.1200
     25 C25       -14.4361   -4.8231   57.6368 C.ar    1  ZINC000450219577   -0.1100
     26 C26       -14.4790   -3.5484   58.1698 C.ar    1  ZINC000450219577   -0.1200
     27 C27       -13.3532   -2.7469   58.1362 C.ar    1  ZINC000450219577   -0.0800
     28 H28       -12.4810    0.5839   55.3597 H       1  ZINC000450219577    0.0800
     29 H29       -11.5996    1.8372   56.2658 H       1  ZINC000450219577    0.0600
     30 H30       -11.7951    1.9852   54.5028 H       1  ZINC000450219577    0.0700
     31 H31       -10.5564    0.4446   52.9749 H       1  ZINC000450219577    0.0700
     32 H32        -9.4784   -0.8009   53.6493 H       1  ZINC000450219577    0.0600
     33 H33       -11.2422   -0.9567   53.8318 H       1  ZINC000450219577    0.0800
     34 H34        -9.1240    2.0558   56.0097 H       1  ZINC000450219577    0.0700
     35 H35        -8.2416    0.9583   54.9212 H       1  ZINC000450219577    0.0700
     36 H36        -9.3195    2.2039   54.2467 H       1  ZINC000450219577    0.0800
     37 H37       -11.1141   -0.6991   58.8577 H       1  ZINC000450219577    0.4100
     38 H38       -11.8346   -0.1808   60.7974 H       1  ZINC000450219577    0.1700
     39 H39        -9.1263    0.0758   65.5049 H       1  ZINC000450219577    0.1300
     40 H40        -9.2710    2.6078   65.4411 H       1  ZINC000450219577    0.1000
     41 H41       -10.0502    2.5211   63.7717 H       1  ZINC000450219577    0.1100
     42 H42       -11.9649    1.1651   64.7357 H       1  ZINC000450219577    0.1000
     43 H43       -11.1857    1.2517   66.4051 H       1  ZINC000450219577    0.1100
     44 H44        -8.4993   -2.6755   61.8600 H       1  ZINC000450219577    0.1800
     45 H45       -11.2317   -4.8607   56.5839 H       1  ZINC000450219577    0.1200
     46 H46       -13.2350   -6.2909   56.6502 H       1  ZINC000450219577    0.1200
     47 H47       -15.3149   -5.4503   57.6654 H       1  ZINC000450219577    0.1300
     48 H48       -15.3913   -3.1797   58.6149 H       1  ZINC000450219577    0.1300
     49 H49       -13.3867   -1.7511   58.5526 H       1  ZINC000450219577    0.1300
@<TRIPOS>BOND
     1     1     2    1
     2     1    28    1
     3     1    29    1
     4     1    30    1
     5     2     3    1
     6     2     4    1
     7     2     5    1
     8     3    31    1
     9     3    32    1
    10     3    33    1
    11     4    34    1
    12     4    35    1
    13     4    36    1
    14     5     6    1
    15     6     7    2
    16     6     8    1
    17     8     9    1
    18     8    10    1
    19     8    22    1
    20    10    11   am
    21    10    37    1
    22    11    12    2
    23    11    13    1
    24    13    21   ar
    25    13    14   ar
    26    14    15   ar
    27    14    38    1
    28    15    16   ar
    29    16    17    1
    30    16    20   ar
    31    17    19    1
    32    17    18    1
    33    17    39    1
    34    18    19    1
    35    18    40    1
    36    18    41    1
    37    19    42    1
    38    19    43    1
    39    20    21   ar
    40    21    44    1
    41    22    27   ar
    42    22    23   ar
    43    23    24   ar
    44    23    45    1
    45    24    25   ar
    46    24    46    1
    47    25    26   ar
    48    25    47    1
    49    26    27   ar
    50    26    48    1
    51    27    49    1
@<TRIPOS>SUBSTRUCTURE
     1 ZINC000450219577        1 TEMP              0 ****  ****    0 ROOT


##########                                Name:    ZINC000119180466
##########                DOCK_Rotatable_Bonds:                  10
##########                         Heavy_Atoms:                  23
##########                    Molecular_Weight:             350.405
##########                DOCK_Rotatable_Bonds:                  10
##########                       Formal_Charge:           0.0299997
##########                     HBond_Acceptors:                   8
##########                        HBond_Donors:                   3
##########                         Heavy_Atoms:                  23
##########                          Grid_Score:          -32.418739
##########                     Grid_vdw_energy:          -31.926762
##########                      Grid_es_energy:           -0.491977
##########           Internal_energy_repulsive:           13.319360

@<TRIPOS>MOLECULE
ZINC000119180466
 44 44 1 0 0
SMALL
USER_CHARGES


@<TRIPOS>ATOM
      1 C1        -11.5523   -3.6685   52.6134 C.3     1  ZINC000119180466   -0.1300
      2 S2        -11.6229   -3.8769   54.4140 S.3     1  ZINC000119180466   -0.2200
      3 C3        -13.2844   -4.5542   54.6815 C.3     1  ZINC000119180466   -0.0700
      4 H4        -13.3581   -5.5333   54.2084 H       1  ZINC000119180466    0.1100
      5 C5        -14.3236   -3.6126   54.0697 C.3     1  ZINC000119180466    0.0800
      6 O6        -15.6315   -4.1525   54.2694 O.3     1  ZINC000119180466   -0.5600
      7 C7        -13.5430   -4.6926   56.1832 C.3     1  ZINC000119180466    0.1900
      8 H8        -14.1633   -3.8632   56.5229 H       1  ZINC000119180466    0.1000
      9 C9        -14.2638   -6.0141   56.4568 C.3     1  ZINC000119180466   -0.1700
     10 N10       -12.2668   -4.6743   56.9021 N.am    1  ZINC000119180466   -0.7200
     11 C11       -12.0757   -3.8049   57.9141 C.2     1  ZINC000119180466    0.7100
     12 O12       -12.9633   -3.0368   58.2314 O.2     1  ZINC000119180466   -0.6000
     13 N13       -10.9010   -3.7871   58.5746 N.am    1  ZINC000119180466   -0.7400
     14 C14       -10.6940   -2.8432   59.6758 C.3     1  ZINC000119180466    0.2000
     15 H15       -11.6108   -2.7591   60.2593 H       1  ZINC000119180466    0.1000
     16 C16        -9.5624   -3.3475   60.5737 C.3     1  ZINC000119180466   -0.1600
     17 C17       -10.3282   -1.4922   59.1173 C.ar    1  ZINC000119180466   -0.0600
     18 C18       -10.6715   -0.3437   59.8056 C.ar    1  ZINC000119180466   -0.1100
     19 C19       -10.3359    0.8956   59.2932 C.ar    1  ZINC000119180466   -0.0600
     20 C20        -9.6566    0.9862   58.0927 C.ar    1  ZINC000119180466   -0.1800
     21 C21        -9.2913    2.3372   57.5338 C.3     1  ZINC000119180466    0.5100
     22 F22        -9.2391    2.2656   56.1375 F       1  ZINC000119180466   -0.1800
     23 F23       -10.2546    3.2765   57.9168 F       1  ZINC000119180466   -0.1800
     24 F24        -8.0408    2.7236   58.0279 F       1  ZINC000119180466   -0.1800
     25 C25        -9.3121   -0.1624   57.4050 C.ar    1  ZINC000119180466   -0.0600
     26 C26        -9.6443   -1.4018   57.9193 C.ar    1  ZINC000119180466   -0.1100
     27 H27       -12.3396   -2.9849   52.2956 H       1  ZINC000119180466    0.0800
     28 H28       -10.5814   -3.2602   52.3327 H       1  ZINC000119180466    0.1000
     29 H29       -11.6935   -4.6351   52.1299 H       1  ZINC000119180466    0.0800
     30 H30       -14.2564   -2.6362   54.5496 H       1  ZINC000119180466    0.0500
     31 H31       -14.1335   -3.5063   53.0017 H       1  ZINC000119180466    0.0600
     32 H32       -15.7705   -5.0122   53.8490 H       1  ZINC000119180466    0.3800
     33 H33       -13.6435   -6.8435   56.1170 H       1  ZINC000119180466    0.0700
     34 H34       -14.4480   -6.1126   57.5266 H       1  ZINC000119180466    0.0700
     35 H35       -15.2134   -6.0277   55.9219 H       1  ZINC000119180466    0.0700
     36 H36       -11.5591   -5.2880   56.6499 H       1  ZINC000119180466    0.4100
     37 H37       -10.1926   -4.3991   58.3208 H       1  ZINC000119180466    0.4000
     38 H38        -9.4084   -2.6453   61.3929 H       1  ZINC000119180466    0.0700
     39 H39        -9.8271   -4.3247   60.9776 H       1  ZINC000119180466    0.0700
     40 H40        -8.6457   -3.4316   59.9901 H       1  ZINC000119180466    0.0600
     41 H41       -11.2022   -0.4146   60.7435 H       1  ZINC000119180466    0.1300
     42 H42       -10.6047    1.7929   59.8307 H       1  ZINC000119180466    0.1400
     43 H43        -8.7812   -0.0916   56.4672 H       1  ZINC000119180466    0.1400
     44 H44        -9.3753   -2.2992   57.3820 H       1  ZINC000119180466    0.1400
@<TRIPOS>BOND
     1     1     2    1
     2     1    27    1
     3     1    28    1
     4     1    29    1
     5     2     3    1
     6     3     4    1
     7     3     5    1
     8     3     7    1
     9     5     6    1
    10     5    30    1
    11     5    31    1
    12     6    32    1
    13     7     8    1
    14     7     9    1
    15     7    10    1
    16     9    33    1
    17     9    34    1
    18     9    35    1
    19    10    11   am
    20    10    36    1
    21    11    12    2
    22    11    13   am
    23    13    14    1
    24    13    37    1
    25    14    15    1
    26    14    16    1
    27    14    17    1
    28    16    38    1
    29    16    39    1
    30    16    40    1
    31    17    26   ar
    32    17    18   ar
    33    18    19   ar
    34    18    41    1
    35    19    20   ar
    36    19    42    1
    37    20    21    1
    38    20    25   ar
    39    21    22    1
    40    21    23    1
    41    21    24    1
    42    25    26   ar
    43    25    43    1
    44    26    44    1
@<TRIPOS>SUBSTRUCTURE
     1 ZINC000119180466        1 TEMP              0 ****  ****    0 ROOT


##########                                Name:    ZINC001087843226
##########                DOCK_Rotatable_Bonds:                   6
##########                         Heavy_Atoms:                  27
##########                    Molecular_Weight:             368.479
##########                DOCK_Rotatable_Bonds:                   6
##########                       Formal_Charge:        -4.47035e-07
##########                     HBond_Acceptors:                   6
##########                        HBond_Donors:                   1
##########                         Heavy_Atoms:                  27
##########                          Grid_Score:          -32.418655
##########                     Grid_vdw_energy:          -31.379353
##########                      Grid_es_energy:           -1.039304
##########           Internal_energy_repulsive:           28.817337

@<TRIPOS>MOLECULE
ZINC001087843226
 55 58 1 0 0
SMALL
USER_CHARGES


@<TRIPOS>ATOM
      1 C1        -10.5957   -4.6257   58.5679 C.3     1  ZINC001087843226   -0.1500
      2 C2        -11.3456   -4.2695   57.2828 C.3     1  ZINC001087843226   -0.1500
      3 C3        -11.3747   -2.7491   57.1138 C.3     1  ZINC001087843226    0.0700
      4 H4        -10.3710   -2.3430   57.2389 H       1  ZINC001087843226    0.1000
      5 C5        -12.3275   -2.1235   58.1542 C.3     1  ZINC001087843226    0.1300
      6 H6        -13.0623   -2.8542   58.4924 H       1  ZINC001087843226    0.1000
      7 N7        -11.5738   -1.5859   59.2896 N.am    1  ZINC001087843226   -0.7200
      8 C8        -12.1306   -1.5607   60.5167 C.2     1  ZINC001087843226    0.5600
      9 O9        -13.2586   -1.9826   60.6811 O.2     1  ZINC001087843226   -0.5300
     10 C10       -11.3693   -1.0199   61.6629 C.ar    1  ZINC001087843226   -0.1400
     11 C11       -10.0422   -1.3996   61.8611 C.ar    1  ZINC001087843226   -0.0800
     12 C12        -9.3369   -0.8914   62.9326 C.ar    1  ZINC001087843226   -0.1300
     13 C13        -9.9441   -0.0089   63.8060 C.ar    1  ZINC001087843226   -0.0400
     14 C14        -9.1662    0.5414   64.9736 C.3     1  ZINC001087843226   -0.1200
     15 C15       -11.2631    0.3744   63.6164 C.ar    1  ZINC001087843226   -0.1100
     16 C16       -11.9772   -0.1227   62.5462 C.ar    1  ZINC001087843226   -0.0300
     17 C17       -13.3818    0.4411   62.5597 C.3     1  ZINC001087843226   -0.0800
     18 C18       -13.5827    0.9896   63.9885 C.3     1  ZINC001087843226   -0.1200
     19 C19       -12.1357    1.3129   64.4228 C.3     1  ZINC001087843226   -0.0800
     20 C20       -13.0145   -0.9831   57.3576 C.3     1  ZINC001087843226   -0.1400
     21 C21       -13.1366   -1.6152   55.9487 C.3     1  ZINC001087843226    0.0400
     22 N22       -11.8931   -2.4027   55.7778 N.3     1  ZINC001087843226   -0.5100
     23 C23       -12.1406   -3.6109   54.9796 C.3     1  ZINC001087843226    0.1100
     24 C24       -12.8452   -3.2335   53.7021 C.2     1  ZINC001087843226    0.0800
     25 N25       -14.0315   -3.6326   53.3526 N.2     1  ZINC001087843226   -0.2700
     26 O26       -14.3196   -3.0532   52.0900 O.3     1  ZINC001087843226    0.0300
     27 N27       -13.1853   -2.2772   51.7375 N.2     1  ZINC001087843226   -0.2800
     28 C28       -12.3229   -2.3881   52.7033 C.2     1  ZINC001087843226    0.0900
     29 C29       -10.9704   -1.7245   52.7436 C.3     1  ZINC001087843226   -0.0900
     30 H30       -10.6342   -5.7037   58.7241 H       1  ZINC001087843226    0.0600
     31 H31        -9.5566   -4.3079   58.4821 H       1  ZINC001087843226    0.0600
     32 H32       -11.0620   -4.1191   59.4130 H       1  ZINC001087843226    0.0600
     33 H33       -10.8389   -4.7203   56.4295 H       1  ZINC001087843226    0.0800
     34 H34       -12.3661   -4.6482   57.3408 H       1  ZINC001087843226    0.0700
     35 H35       -10.6741   -1.2482   59.1582 H       1  ZINC001087843226    0.4000
     36 H36        -9.5681   -2.0894   61.1785 H       1  ZINC001087843226    0.1300
     37 H37        -8.3092   -1.1838   63.0892 H       1  ZINC001087843226    0.1300
     38 H38        -8.6664    1.4629   64.6751 H       1  ZINC001087843226    0.0800
     39 H39        -9.8475    0.7484   65.7989 H       1  ZINC001087843226    0.0700
     40 H40        -8.4221   -0.1891   65.2911 H       1  ZINC001087843226    0.0700
     41 H41       -13.4737    1.2451   61.8295 H       1  ZINC001087843226    0.0800
     42 H42       -14.1071   -0.3453   62.3509 H       1  ZINC001087843226    0.0900
     43 H43       -14.1921    1.8932   63.9746 H       1  ZINC001087843226    0.0800
     44 H44       -14.0251    0.2323   64.6356 H       1  ZINC001087843226    0.0700
     45 H45       -12.0086    1.1202   65.4881 H       1  ZINC001087843226    0.0800
     46 H46       -11.8952    2.3511   64.1940 H       1  ZINC001087843226    0.0800
     47 H47       -13.9974   -0.7558   57.7702 H       1  ZINC001087843226    0.0800
     48 H48       -12.3876   -0.0918   57.3327 H       1  ZINC001087843226    0.0800
     49 H49       -14.0095   -2.2663   55.8993 H       1  ZINC001087843226    0.0600
     50 H50       -13.1990   -0.8372   55.1879 H       1  ZINC001087843226    0.0800
     51 H51       -11.1910   -4.0907   54.7428 H       1  ZINC001087843226    0.1200
     52 H52       -12.7643   -4.3006   55.5485 H       1  ZINC001087843226    0.0700
     53 H53       -11.0407   -0.7901   53.3005 H       1  ZINC001087843226    0.1000
     54 H54       -10.2556   -2.3861   53.2329 H       1  ZINC001087843226    0.0900
     55 H55       -10.6369   -1.5174   51.7268 H       1  ZINC001087843226    0.0900
@<TRIPOS>BOND
     1     1     2    1
     2     1    30    1
     3     1    31    1
     4     1    32    1
     5     2     3    1
     6     2    33    1
     7     2    34    1
     8     3     4    1
     9     3    22    1
    10     3     5    1
    11     5     6    1
    12     5     7    1
    13     5    20    1
    14     7     8   am
    15     7    35    1
    16     8     9    2
    17     8    10    1
    18    10    16   ar
    19    10    11   ar
    20    11    12   ar
    21    11    36    1
    22    12    13   ar
    23    12    37    1
    24    13    14    1
    25    13    15   ar
    26    14    38    1
    27    14    39    1
    28    14    40    1
    29    15    19    1
    30    15    16   ar
    31    16    17    1
    32    17    18    1
    33    17    41    1
    34    17    42    1
    35    18    19    1
    36    18    43    1
    37    18    44    1
    38    19    45    1
    39    19    46    1
    40    20    21    1
    41    20    47    1
    42    20    48    1
    43    21    22    1
    44    21    49    1
    45    21    50    1
    46    22    23    1
    47    23    24    1
    48    23    51    1
    49    23    52    1
    50    24    28    1
    51    24    25    2
    52    25    26    1
    53    26    27    1
    54    27    28    2
    55    28    29    1
    56    29    53    1
    57    29    54    1
    58    29    55    1
@<TRIPOS>SUBSTRUCTURE
     1 ZINC001087843226        1 TEMP              0 ****  ****    0 ROOT


##########                                Name:    ZINC000949401225
##########                DOCK_Rotatable_Bonds:                   7
##########                         Heavy_Atoms:                  24
##########                    Molecular_Weight:             332.403
##########                DOCK_Rotatable_Bonds:                   7
##########                       Formal_Charge:                0.03
##########                     HBond_Acceptors:                   7
##########                        HBond_Donors:                   1
##########                         Heavy_Atoms:                  24
##########                          Grid_Score:          -32.412392
##########                     Grid_vdw_energy:          -31.558952
##########                      Grid_es_energy:           -0.853440
##########           Internal_energy_repulsive:           11.009571

@<TRIPOS>MOLECULE
ZINC000949401225
 48 50 1 0 0
SMALL
USER_CHARGES


@<TRIPOS>ATOM
      1 C1        -13.9761    1.3276   49.4244 C.3     1  ZINC000949401225    0.0700
      2 N2        -14.1671    0.0863   50.1784 N.pl3   1  ZINC000949401225   -0.4500
      3 C3        -15.2915   -0.6857   50.1376 C.2     1  ZINC000949401225   -0.0100
      4 C4        -15.1217   -1.7444   50.9494 C.2     1  ZINC000949401225   -0.1700
      5 C5        -13.7831   -1.6060   51.5331 C.2     1  ZINC000949401225   -0.2400
      6 C6        -13.1353   -2.5206   52.4885 C.2     1  ZINC000949401225    0.5900
      7 O7        -11.9686   -2.3574   52.7909 O.2     1  ZINC000949401225   -0.5500
      8 N8        -13.8353   -3.5383   53.0275 N.am    1  ZINC000949401225   -0.7300
      9 C9        -13.1904   -4.4492   53.9765 C.3     1  ZINC000949401225    0.1200
     10 C10       -13.9120   -4.3770   55.3237 C.3     1  ZINC000949401225    0.1200
     11 H11       -14.7531   -3.6838   55.3144 H       1  ZINC000949401225    0.1000
     12 C12       -14.2613   -5.7542   55.9047 C.3     1  ZINC000949401225   -0.1500
     13 C13       -13.8641   -5.0961   57.2333 C.3     1  ZINC000949401225    0.1000
     14 N14       -13.0046   -4.1817   56.4645 N.am    1  ZINC000949401225   -0.6400
     15 C15       -11.8801   -3.4775   56.7015 C.2     1  ZINC000949401225    0.5500
     16 O16       -11.3995   -2.7896   55.8258 O.2     1  ZINC000949401225   -0.5200
     17 C17       -11.2200   -3.5448   58.0545 C.3     1  ZINC000949401225   -0.1400
     18 C18       -10.5747   -2.1950   58.3749 C.3     1  ZINC000949401225    0.1500
     19 H19        -9.8341   -1.9420   57.6161 H       1  ZINC000949401225    0.0900
     20 C20       -11.6539   -1.0927   58.4570 C.3     1  ZINC000949401225   -0.1200
     21 C21       -11.0998   -0.1925   59.5855 C.3     1  ZINC000949401225   -0.1600
     22 C22       -10.2252   -1.1178   60.4026 C.2     1  ZINC000949401225    0.5200
     23 O23        -9.8291   -0.8875   61.5255 O.2     1  ZINC000949401225   -0.5300
     24 N24        -9.9495   -2.2332   59.7021 N.am    1  ZINC000949401225   -0.6200
     25 C25        -9.1334   -3.3425   60.2018 C.3     1  ZINC000949401225    0.0900
     26 C26       -13.2559   -0.4591   51.0066 C.2     1  ZINC000949401225    0.0800
     27 H27       -13.5373    1.0989   48.4532 H       1  ZINC000949401225    0.0800
     28 H28       -14.9391    1.8178   49.2815 H       1  ZINC000949401225    0.0900
     29 H29       -13.3098    1.9898   49.9774 H       1  ZINC000949401225    0.0900
     30 H30       -16.1737   -0.4801   49.5495 H       1  ZINC000949401225    0.1700
     31 H31       -15.8301   -2.5382   51.1349 H       1  ZINC000949401225    0.1500
     32 H32       -14.7660   -3.6677   52.7872 H       1  ZINC000949401225    0.4000
     33 H33       -13.2390   -5.4681   53.5925 H       1  ZINC000949401225    0.0700
     34 H34       -12.1476   -4.1595   54.1069 H       1  ZINC000949401225    0.0900
     35 H35       -15.3172   -6.0147   55.8330 H       1  ZINC000949401225    0.1000
     36 H36       -13.5948   -6.5556   55.5861 H       1  ZINC000949401225    0.1000
     37 H37       -14.6923   -4.5940   57.7336 H       1  ZINC000949401225    0.0900
     38 H38       -13.3093   -5.7590   57.8973 H       1  ZINC000949401225    0.0800
     39 H39       -11.9676   -3.7792   58.8123 H       1  ZINC000949401225    0.1000
     40 H40       -10.4545   -4.3207   58.0470 H       1  ZINC000949401225    0.1000
     41 H41       -11.7226   -0.5434   57.5181 H       1  ZINC000949401225    0.1000
     42 H42       -12.6209   -1.5133   58.7328 H       1  ZINC000949401225    0.0800
     43 H43       -10.5078    0.6220   59.1679 H       1  ZINC000949401225    0.1100
     44 H44       -11.9139    0.1999   60.1950 H       1  ZINC000949401225    0.1000
     45 H45        -8.8653   -3.1566   61.2418 H       1  ZINC000949401225    0.0800
     46 H46        -9.7008   -4.2707   60.1331 H       1  ZINC000949401225    0.0600
     47 H47        -8.2269   -3.4255   59.6021 H       1  ZINC000949401225    0.0600
     48 H48       -12.2778   -0.0558   51.2231 H       1  ZINC000949401225    0.1800
@<TRIPOS>BOND
     1     1     2    1
     2     1    27    1
     3     1    28    1
     4     1    29    1
     5     2    26    1
     6     2     3    1
     7     3     4    2
     8     3    30    1
     9     4     5    1
    10     4    31    1
    11     5     6    1
    12     5    26    2
    13     6     7    2
    14     6     8   am
    15     8     9    1
    16     8    32    1
    17     9    10    1
    18     9    33    1
    19     9    34    1
    20    10    11    1
    21    10    14    1
    22    10    12    1
    23    12    13    1
    24    12    35    1
    25    12    36    1
    26    13    14    1
    27    13    37    1
    28    13    38    1
    29    14    15   am
    30    15    16    2
    31    15    17    1
    32    17    18    1
    33    17    39    1
    34    17    40    1
    35    18    19    1
    36    18    24    1
    37    18    20    1
    38    20    21    1
    39    20    41    1
    40    20    42    1
    41    21    22    1
    42    21    43    1
    43    21    44    1
    44    22    23    2
    45    22    24   am
    46    24    25    1
    47    25    45    1
    48    25    46    1
    49    25    47    1
    50    26    48    1
@<TRIPOS>SUBSTRUCTURE
     1 ZINC000949401225        1 TEMP              0 ****  ****    0 ROOT


##########                                Name:    ZINC000443933644
##########                DOCK_Rotatable_Bonds:                   8
##########                         Heavy_Atoms:                  27
##########                    Molecular_Weight:             402.438
##########                DOCK_Rotatable_Bonds:                   8
##########                       Formal_Charge:          0.00999922
##########                     HBond_Acceptors:                   9
##########                        HBond_Donors:                   2
##########                         Heavy_Atoms:                  27
##########                          Grid_Score:          -32.387791
##########                     Grid_vdw_energy:          -31.491732
##########                      Grid_es_energy:           -0.896060
##########           Internal_energy_repulsive:           38.305122

@<TRIPOS>MOLECULE
ZINC000443933644
 48 49 1 0 0
SMALL
USER_CHARGES


@<TRIPOS>ATOM
      1 C1        -10.2000    0.1496   56.1848 C.3     1  ZINC000443933644   -0.1500
      2 C2        -10.9559   -1.1705   56.3488 C.3     1  ZINC000443933644   -0.1400
      3 C3        -11.5362   -1.5969   54.9989 C.3     1  ZINC000443933644   -0.1000
      4 H4        -10.7254   -1.7481   54.2862 H       1  ZINC000443933644    0.1000
      5 C5        -12.4747   -0.5058   54.4797 C.3     1  ZINC000443933644   -0.1700
      6 C6        -12.3161   -2.9022   55.1685 C.3     1  ZINC000443933644    0.1200
      7 H7        -13.2122   -2.7158   55.7604 H       1  ZINC000443933644    0.1300
      8 N8        -11.4754   -3.8880   55.8524 N.am    1  ZINC000443933644   -1.1100
      9 S9        -12.1081   -4.8117   57.0725 S.o2    1  ZINC000443933644    2.6900
     10 O10       -13.2751   -5.4280   56.5454 O.2     1  ZINC000443933644   -0.9400
     11 O11       -11.0235   -5.5454   57.6242 O.2     1  ZINC000443933644   -0.9400
     12 C12       -12.6545   -3.7080   58.3327 C.ar    1  ZINC000443933644   -0.7000
     13 C13       -11.7170   -2.9784   59.0830 C.ar    1  ZINC000443933644    0.0500
     14 C14       -10.3369   -3.1089   58.8494 C.ar    1  ZINC000443933644   -0.1400
     15 C15        -9.4563   -2.3868   59.5945 C.ar    1  ZINC000443933644   -0.0800
     16 C16        -9.9018   -1.5174   60.5884 C.ar    1  ZINC000443933644   -0.1200
     17 C17       -11.2309   -1.3660   60.8424 C.ar    1  ZINC000443933644   -0.0900
     18 C18       -12.1688   -2.0942   60.0936 C.ar    1  ZINC000443933644   -0.0900
     19 C19       -13.5539   -1.9632   60.3285 C.ar    1  ZINC000443933644    0.2300
     20 N20       -14.0215   -1.0982   61.3196 N.am    1  ZINC000443933644   -0.6700
     21 C21       -14.5872   -1.5963   62.4368 C.2     1  ZINC000443933644    0.5100
     22 C22       -15.0920   -0.6625   63.5066 C.3     1  ZINC000443933644   -0.1700
     23 O23       -14.6901   -2.7961   62.5813 O.2     1  ZINC000443933644   -0.5100
     24 C24       -14.4411   -2.6967   59.5706 C.ar    1  ZINC000443933644   -0.1600
     25 C25       -13.9856   -3.5573   58.5763 C.ar    1  ZINC000443933644    0.0400
     26 C26       -12.7162   -3.4397   53.7930 C.3     1  ZINC000443933644    0.4300
     27 F27       -12.7194   -4.8384   53.8218 F       1  ZINC000443933644   -0.1700
     28 F28       -13.9951   -2.9770   53.4654 F       1  ZINC000443933644   -0.1600
     29 F29       -11.7996   -2.9952   52.8341 F       1  ZINC000443933644   -0.1700
     30 H30        -9.3907    0.0181   55.4666 H       1  ZINC000443933644    0.0500
     31 H31       -10.8842    0.9178   55.8245 H       1  ZINC000443933644    0.0600
     32 H32        -9.7866    0.4534   57.1466 H       1  ZINC000443933644    0.0600
     33 H33       -10.2716   -1.9386   56.7090 H       1  ZINC000443933644    0.0700
     34 H34       -11.7652   -1.0390   57.0669 H       1  ZINC000443933644    0.0900
     35 H35       -11.8979    0.3896   54.2479 H       1  ZINC000443933644    0.0700
     36 H36       -12.9775   -0.8574   53.5787 H       1  ZINC000443933644    0.0600
     37 H37       -13.2174   -0.2722   55.2425 H       1  ZINC000443933644    0.0700
     38 H38       -10.5481   -3.9997   55.5904 H       1  ZINC000443933644    0.4300
     39 H39        -9.9772   -3.7793   58.0827 H       1  ZINC000443933644    0.1400
     40 H40        -8.3966   -2.4892   59.4132 H       1  ZINC000443933644    0.1300
     41 H41        -9.1823   -0.9558   61.1657 H       1  ZINC000443933644    0.1300
     42 H42       -11.5618   -0.6892   61.6161 H       1  ZINC000443933644    0.1300
     43 H43       -13.9394   -0.1386   61.2038 H       1  ZINC000443933644    0.4200
     44 H44       -14.9144    0.3688   63.2019 H       1  ZINC000443933644    0.0800
     45 H45       -16.1608   -0.8198   63.6512 H       1  ZINC000443933644    0.1000
     46 H46       -14.5658   -0.8614   64.4402 H       1  ZINC000443933644    0.1000
     47 H47       -15.5020   -2.5992   59.7475 H       1  ZINC000443933644    0.1500
     48 H48       -14.6993   -4.1221   57.9949 H       1  ZINC000443933644    0.1500
@<TRIPOS>BOND
     1     1     2    1
     2     1    30    1
     3     1    31    1
     4     1    32    1
     5     2     3    1
     6     2    33    1
     7     2    34    1
     8     3     4    1
     9     3     5    1
    10     3     6    1
    11     5    35    1
    12     5    36    1
    13     5    37    1
    14     6     7    1
    15     6     8    1
    16     6    26    1
    17     8     9   am
    18     8    38    1
    19     9    10    2
    20     9    11    2
    21     9    12    1
    22    12    25   ar
    23    12    13   ar
    24    13    18   ar
    25    13    14   ar
    26    14    15   ar
    27    14    39    1
    28    15    16   ar
    29    15    40    1
    30    16    17   ar
    31    16    41    1
    32    17    18   ar
    33    17    42    1
    34    18    19   ar
    35    19    20    1
    36    19    24   ar
    37    20    21   am
    38    20    43    1
    39    21    22    1
    40    21    23    2
    41    22    44    1
    42    22    45    1
    43    22    46    1
    44    24    25   ar
    45    24    47    1
    46    25    48    1
    47    26    27    1
    48    26    28    1
    49    26    29    1
@<TRIPOS>SUBSTRUCTURE
     1 ZINC000443933644        1 TEMP              0 ****  ****    0 ROOT


##########                                Name:    ZINC000080099940
##########                DOCK_Rotatable_Bonds:                   4
##########                         Heavy_Atoms:                  26
##########                    Molecular_Weight:             343.388
##########                DOCK_Rotatable_Bonds:                   4
##########                       Formal_Charge:        -3.42727e-07
##########                     HBond_Acceptors:                   6
##########                        HBond_Donors:                   1
##########                         Heavy_Atoms:                  26
##########                          Grid_Score:          -32.349201
##########                     Grid_vdw_energy:          -32.923714
##########                      Grid_es_energy:            0.574514
##########           Internal_energy_repulsive:            3.097043

@<TRIPOS>MOLECULE
ZINC000080099940
 43 46 1 0 0
SMALL
USER_CHARGES


@<TRIPOS>ATOM
      1 C1        -14.4496   -4.1722   55.1157 C.3     1  ZINC000080099940   -0.1100
      2 C2        -13.4910   -3.0481   54.8177 C.2     1  ZINC000080099940   -0.0700
      3 C3        -12.5522   -3.1911   53.8440 C.2     1  ZINC000080099940   -0.0900
      4 C4        -11.6638   -2.1286   53.5792 C.2     1  ZINC000080099940    0.2300
      5 N5        -10.6737   -1.9945   52.7092 N.2     1  ZINC000080099940   -0.4800
      6 C6        -10.1243   -0.7780   52.8525 C.2     1  ZINC000080099940    0.1000
      7 C7         -8.9885   -0.2391   52.0645 C.ar    1  ZINC000080099940   -0.0200
      8 C8         -8.8498    1.1370   51.8914 C.ar    1  ZINC000080099940   -0.0800
      9 C9         -7.7934    1.6357   51.1591 C.ar    1  ZINC000080099940   -0.1200
     10 C10        -6.8673    0.7671   50.5933 C.ar    1  ZINC000080099940    0.1500
     11 N11        -5.7975    1.2748   49.8509 N.am    1  ZINC000080099940   -0.6500
     12 C12        -4.7109    1.7624   50.4817 C.2     1  ZINC000080099940    0.5700
     13 O13        -4.6613    1.7607   51.6956 O.2     1  ZINC000080099940   -0.5000
     14 C14        -3.5749    2.3014   49.6934 C.ar    1  ZINC000080099940    0.1300
     15 C15        -2.4521    2.8257   50.3347 C.ar    1  ZINC000080099940   -0.1700
     16 C16        -1.4172    3.3166   49.5511 C.ar    1  ZINC000080099940    0.1600
     17 N17        -1.5290    3.2714   48.2348 N.ar    1  ZINC000080099940   -0.5000
     18 C18        -2.6048    2.7687   47.6604 C.ar    1  ZINC000080099940    0.3200
     19 C19        -2.6848    2.7394   46.1558 C.3     1  ZINC000080099940   -0.0900
     20 N20        -3.6078    2.2876   48.3626 N.ar    1  ZINC000080099940   -0.5000
     21 C21        -7.0036   -0.6054   50.7649 C.ar    1  ZINC000080099940   -0.1400
     22 C22        -8.0555   -1.1080   51.5010 C.ar    1  ZINC000080099940   -0.0700
     23 C23       -10.7889   -0.1228   53.8451 C.2     1  ZINC000080099940   -0.0900
     24 N24       -11.7588   -0.9691   54.3054 N.pl3   1  ZINC000080099940   -0.3600
     25 C25       -12.7062   -0.8396   55.2799 C.2     1  ZINC000080099940    0.0600
     26 C26       -13.5668   -1.8459   55.5403 C.2     1  ZINC000080099940   -0.1400
     27 H27       -15.1245   -3.8712   55.9171 H       1  ZINC000080099940    0.0700
     28 H28       -15.0279   -4.4033   54.2213 H       1  ZINC000080099940    0.0800
     29 H29       -13.8896   -5.0549   55.4247 H       1  ZINC000080099940    0.0800
     30 H30       -12.4875   -4.1095   53.2794 H       1  ZINC000080099940    0.1500
     31 H31        -9.5694    1.8122   52.3303 H       1  ZINC000080099940    0.1300
     32 H32        -7.6855    2.7018   51.0248 H       1  ZINC000080099940    0.1400
     33 H33        -5.8371    1.2760   48.8818 H       1  ZINC000080099940    0.4200
     34 H34        -2.3903    2.8492   51.4127 H       1  ZINC000080099940    0.1600
     35 H35        -0.5319    3.7306   50.0110 H       1  ZINC000080099940    0.1800
     36 H36        -2.2668    1.8024   45.7878 H       1  ZINC000080099940    0.0900
     37 H37        -3.7267    2.8191   45.8457 H       1  ZINC000080099940    0.0900
     38 H38        -2.1186    3.5757   45.7455 H       1  ZINC000080099940    0.0900
     39 H39        -6.2829   -1.2784   50.3245 H       1  ZINC000080099940    0.1300
     40 H40        -8.1607   -2.1746   51.6344 H       1  ZINC000080099940    0.1400
     41 H41       -10.5873    0.8766   54.2013 H       1  ZINC000080099940    0.1900
     42 H42       -12.7705    0.0788   55.8445 H       1  ZINC000080099940    0.1700
     43 H43       -14.3116   -1.7297   56.3137 H       1  ZINC000080099940    0.1500
@<TRIPOS>BOND
     1     1     2    1
     2     1    27    1
     3     1    28    1
     4     1    29    1
     5     2    26    1
     6     2     3    2
     7     3     4    1
     8     3    30    1
     9     4    24    1
    10     4     5    2
    11     5     6    1
    12     6     7    1
    13     6    23    2
    14     7    22   ar
    15     7     8   ar
    16     8     9   ar
    17     8    31    1
    18     9    10   ar
    19     9    32    1
    20    10    11    1
    21    10    21   ar
    22    11    12   am
    23    11    33    1
    24    12    13    2
    25    12    14    1
    26    14    20   ar
    27    14    15   ar
    28    15    16   ar
    29    15    34    1
    30    16    17   ar
    31    16    35    1
    32    17    18   ar
    33    18    19    1
    34    18    20   ar
    35    19    36    1
    36    19    37    1
    37    19    38    1
    38    21    22   ar
    39    21    39    1
    40    22    40    1
    41    23    24    1
    42    23    41    1
    43    24    25    1
    44    25    26    2
    45    25    42    1
    46    26    43    1
@<TRIPOS>SUBSTRUCTURE
     1 ZINC000080099940        1 TEMP              0 ****  ****    0 ROOT


##########                                Name:    ZINC000225856071
##########                DOCK_Rotatable_Bonds:                   6
##########                         Heavy_Atoms:                  29
##########                    Molecular_Weight:             409.549
##########                DOCK_Rotatable_Bonds:                   6
##########                       Formal_Charge:         -0.00999989
##########                     HBond_Acceptors:                   5
##########                        HBond_Donors:                   1
##########                         Heavy_Atoms:                  29
##########                          Grid_Score:          -32.346519
##########                     Grid_vdw_energy:          -31.462984
##########                      Grid_es_energy:           -0.883537
##########           Internal_energy_repulsive:           33.163395

@<TRIPOS>MOLECULE
ZINC000225856071
 56 58 1 0 0
SMALL
USER_CHARGES


@<TRIPOS>ATOM
      1 C1        -11.0686    0.7443   62.4415 C.3     1  ZINC000225856071    0.0200
      2 O2        -11.4333   -0.6156   62.6856 O.3     1  ZINC000225856071   -0.3100
      3 C3        -11.5110   -1.4369   61.6056 C.ar    1  ZINC000225856071    0.1900
      4 C4        -10.3522   -1.9081   61.0064 C.ar    1  ZINC000225856071   -0.2300
      5 C5        -10.4338   -2.7434   59.9088 C.ar    1  ZINC000225856071    0.0700
      6 C6         -9.1752   -3.2556   59.2573 C.3     1  ZINC000225856071   -0.1800
      7 C7        -11.6691   -3.1100   59.4081 C.ar    1  ZINC000225856071   -0.7100
      8 S8        -11.7698   -4.1757   58.0086 S.o2    1  ZINC000225856071    2.7000
      9 O9        -10.7806   -5.1785   58.1958 O.2     1  ZINC000225856071   -0.9600
     10 O10       -13.1483   -4.4684   57.8256 O.2     1  ZINC000225856071   -0.9500
     11 N11       -11.2993   -3.2954   56.6872 N.am    1  ZINC000225856071   -1.1100
     12 C12       -12.0383   -2.0877   56.3107 C.3     1  ZINC000225856071    0.2400
     13 H13       -12.3161   -1.5369   57.2092 H       1  ZINC000225856071    0.1100
     14 C14       -13.2826   -2.4755   55.5543 C.ar    1  ZINC000225856071   -0.1000
     15 C15       -13.3835   -3.7324   54.9877 C.ar    1  ZINC000225856071   -0.1000
     16 C16       -14.5250   -4.0882   54.2939 C.ar    1  ZINC000225856071   -0.1200
     17 C17       -15.5657   -3.1872   54.1670 C.ar    1  ZINC000225856071   -0.1100
     18 C18       -15.4652   -1.9307   54.7344 C.ar    1  ZINC000225856071   -0.1100
     19 C19       -14.3255   -1.5764   55.4319 C.ar    1  ZINC000225856071   -0.1000
     20 C20       -11.1698   -1.2192   55.4375 C.ar    1  ZINC000225856071   -0.0900
     21 C21       -11.1612   -1.4056   54.0680 C.ar    1  ZINC000225856071   -0.1000
     22 C22       -10.3645   -0.6087   53.2669 C.ar    1  ZINC000225856071   -0.1200
     23 C23        -9.5769    0.3744   53.8355 C.ar    1  ZINC000225856071   -0.0800
     24 C24        -8.7080    1.2426   52.9623 C.3     1  ZINC000225856071   -0.1200
     25 C25        -9.5864    0.5617   55.2053 C.ar    1  ZINC000225856071   -0.1200
     26 C26       -10.3858   -0.2323   56.0057 C.ar    1  ZINC000225856071   -0.0600
     27 C27       -10.3964   -0.0281   57.4988 C.3     1  ZINC000225856071   -0.1300
     28 C28       -12.8259   -2.6419   60.0039 C.ar    1  ZINC000225856071    0.0200
     29 C29       -12.7497   -1.8101   61.1041 C.ar    1  ZINC000225856071   -0.1400
     30 C30       -14.0108   -1.3008   61.7532 C.3     1  ZINC000225856071   -0.1100
     31 H31       -11.8005    1.2031   61.7767 H       1  ZINC000225856071    0.0600
     32 H32       -11.0436    1.2888   63.3854 H       1  ZINC000225856071    0.1000
     33 H33       -10.0834    0.7783   61.9762 H       1  ZINC000225856071    0.0600
     34 H34        -9.3868   -1.6221   61.3973 H       1  ZINC000225856071    0.1400
     35 H35        -8.8869   -4.2009   59.7171 H       1  ZINC000225856071    0.0900
     36 H36        -9.3534   -3.4087   58.1930 H       1  ZINC000225856071    0.1000
     37 H37        -8.3748   -2.5278   59.3906 H       1  ZINC000225856071    0.0800
     38 H38       -10.5345   -3.5793   56.1626 H       1  ZINC000225856071    0.4200
     39 H39       -12.5704   -4.4363   55.0868 H       1  ZINC000225856071    0.1200
     40 H40       -14.6035   -5.0699   53.8505 H       1  ZINC000225856071    0.1200
     41 H41       -16.4572   -3.4649   53.6243 H       1  ZINC000225856071    0.1200
     42 H42       -16.2781   -1.2267   54.6349 H       1  ZINC000225856071    0.1200
     43 H43       -14.2470   -0.5947   55.8751 H       1  ZINC000225856071    0.1200
     44 H44       -11.7767   -2.1739   53.6237 H       1  ZINC000225856071    0.1200
     45 H45       -10.3573   -0.7549   52.1968 H       1  ZINC000225856071    0.1200
     46 H46        -9.2689    2.1252   52.6547 H       1  ZINC000225856071    0.0700
     47 H47        -7.8240    1.5504   53.5209 H       1  ZINC000225856071    0.0700
     48 H48        -8.4028    0.6803   52.0799 H       1  ZINC000225856071    0.0700
     49 H49        -8.9713    1.3302   55.6495 H       1  ZINC000225856071    0.1200
     50 H50       -11.1674    0.6963   57.7611 H       1  ZINC000225856071    0.0800
     51 H51       -10.6054   -0.9765   57.9937 H       1  ZINC000225856071    0.0700
     52 H52        -9.4238    0.3435   57.8216 H       1  ZINC000225856071    0.0700
     53 H53       -13.7898   -2.9300   59.6111 H       1  ZINC000225856071    0.1500
     54 H54       -14.3264   -1.9974   62.5300 H       1  ZINC000225856071    0.0700
     55 H55       -13.8218   -0.3233   62.1967 H       1  ZINC000225856071    0.0700
     56 H56       -14.7962   -1.2136   61.0025 H       1  ZINC000225856071    0.0700
@<TRIPOS>BOND
     1     1     2    1
     2     1    31    1
     3     1    32    1
     4     1    33    1
     5     2     3    1
     6     3    29   ar
     7     3     4   ar
     8     4     5   ar
     9     4    34    1
    10     5     6    1
    11     5     7   ar
    12     6    35    1
    13     6    36    1
    14     6    37    1
    15     7     8    1
    16     7    28   ar
    17     8     9    2
    18     8    10    2
    19     8    11   am
    20    11    12    1
    21    11    38    1
    22    12    13    1
    23    12    14    1
    24    12    20    1
    25    14    19   ar
    26    14    15   ar
    27    15    16   ar
    28    15    39    1
    29    16    17   ar
    30    16    40    1
    31    17    18   ar
    32    17    41    1
    33    18    19   ar
    34    18    42    1
    35    19    43    1
    36    20    26   ar
    37    20    21   ar
    38    21    22   ar
    39    21    44    1
    40    22    23   ar
    41    22    45    1
    42    23    24    1
    43    23    25   ar
    44    24    46    1
    45    24    47    1
    46    24    48    1
    47    25    26   ar
    48    25    49    1
    49    26    27    1
    50    27    50    1
    51    27    51    1
    52    27    52    1
    53    28    29   ar
    54    28    53    1
    55    29    30    1
    56    30    54    1
    57    30    55    1
    58    30    56    1
@<TRIPOS>SUBSTRUCTURE
     1 ZINC000225856071        1 TEMP              0 ****  ****    0 ROOT


##########                                Name:    ZINC001053792610
##########                DOCK_Rotatable_Bonds:                   5
##########                         Heavy_Atoms:                  25
##########                    Molecular_Weight:             347.374
##########                DOCK_Rotatable_Bonds:                   5
##########                       Formal_Charge:          -0.0400001
##########                     HBond_Acceptors:                   9
##########                        HBond_Donors:                   2
##########                         Heavy_Atoms:                  25
##########                          Grid_Score:          -32.346466
##########                     Grid_vdw_energy:          -31.501587
##########                      Grid_es_energy:           -0.844878
##########           Internal_energy_repulsive:            4.993171

@<TRIPOS>MOLECULE
ZINC001053792610
 46 49 1 0 0
SMALL
USER_CHARGES


@<TRIPOS>ATOM
      1 C1         -8.9521    0.0031   64.8664 C.3     1  ZINC001053792610   -0.1000
      2 C2         -9.3731   -0.3874   63.4730 C.ar    1  ZINC001053792610    0.0800
      3 C3        -10.1508    0.4729   62.7188 C.ar    1  ZINC001053792610    0.0600
      4 N4        -10.5200    0.1305   61.4970 N.ar    1  ZINC001053792610   -0.4200
      5 C5        -10.1464   -1.0334   60.9957 C.ar    1  ZINC001053792610    0.0800
      6 C6        -10.5670   -1.4237   59.6022 C.3     1  ZINC001053792610    0.0700
      7 N7        -11.7238   -2.3261   59.6745 N.3     1  ZINC001053792610   -0.4500
      8 C8        -12.2528   -2.6170   58.3274 C.3     1  ZINC001053792610   -0.0100
      9 C9        -13.6558   -2.4633   58.9112 C.3     1  ZINC001053792610    0.0800
     10 C10       -12.9654   -1.5741   59.9433 C.3     1  ZINC001053792610   -0.0100
     11 C11       -14.6680   -1.7479   58.0027 C.3     1  ZINC001053792610   -0.1500
     12 C12       -15.6401   -2.9028   57.6307 C.3     1  ZINC001053792610    0.1100
     13 H13       -16.6420   -2.5233   57.4301 H       1  ZINC001053792610    0.1200
     14 N14       -15.1334   -3.6729   56.4921 N.am    1  ZINC001053792610   -0.7100
     15 C15       -15.5967   -3.4250   55.2510 C.2     1  ZINC001053792610    0.5000
     16 O16       -16.4323   -2.5633   55.0766 O.2     1  ZINC001053792610   -0.5100
     17 C17       -15.0768   -4.2184   54.0801 C.3     1  ZINC001053792610    0.0800
     18 H18       -15.7299   -5.0662   53.8731 H       1  ZINC001053792610    0.1300
     19 C19       -14.9437   -3.3210   52.8345 C.3     1  ZINC001053792610    0.0500
     20 O20       -13.5217   -3.3627   52.5201 O.3     1  ZINC001053792610   -0.3200
     21 C21       -12.8914   -4.1414   53.4066 C.2     1  ZINC001053792610    0.6500
     22 O22       -11.6945   -4.3482   53.3746 O.2     1  ZINC001053792610   -0.5100
     23 N23       -13.7021   -4.6752   54.3351 N.am    1  ZINC001053792610   -0.7100
     24 C24       -15.6124   -3.7450   58.9320 C.3     1  ZINC001053792610    0.0400
     25 O25       -14.2591   -3.6521   59.4121 O.3     1  ZINC001053792610   -0.3300
     26 C26        -9.3684   -1.8940   61.7502 C.ar    1  ZINC001053792610    0.0600
     27 N27        -8.9948   -1.5493   62.9698 N.ar    1  ZINC001053792610   -0.4400
     28 H28        -8.0031    0.5375   64.8229 H       1  ZINC001053792610    0.0800
     29 H29        -9.7120    0.6476   65.3084 H       1  ZINC001053792610    0.0800
     30 H30        -8.8367   -0.8933   65.4758 H       1  ZINC001053792610    0.0800
     31 H31       -10.4564    1.4242   63.1287 H       1  ZINC001053792610    0.1700
     32 H32       -10.8381   -0.5295   59.0408 H       1  ZINC001053792610    0.1000
     33 H33        -9.7417   -1.9303   59.1020 H       1  ZINC001053792610    0.0600
     34 H34       -12.0036   -1.8553   57.5886 H       1  ZINC001053792610    0.0800
     35 H35       -12.0335   -3.6276   57.9831 H       1  ZINC001053792610    0.0900
     36 H36       -13.3446   -1.7087   60.9564 H       1  ZINC001053792610    0.1000
     37 H37       -12.9116   -0.5263   59.6480 H       1  ZINC001053792610    0.0800
     38 H38       -15.1894   -0.9597   58.5457 H       1  ZINC001053792610    0.1000
     39 H39       -14.1792   -1.3489   57.1139 H       1  ZINC001053792610    0.1000
     40 H40       -14.4643   -4.3612   56.6315 H       1  ZINC001053792610    0.4000
     41 H41       -15.5297   -3.7243   52.0087 H       1  ZINC001053792610    0.1200
     42 H42       -15.2549   -2.3016   53.0630 H       1  ZINC001053792610    0.1100
     43 H43       -13.4248   -5.2626   55.0556 H       1  ZINC001053792610    0.4400
     44 H44       -16.3034   -3.3300   59.6658 H       1  ZINC001053792610    0.0800
     45 H45       -15.8669   -4.7827   58.7164 H       1  ZINC001053792610    0.0900
     46 H46        -9.0630   -2.8455   61.3405 H       1  ZINC001053792610    0.1600
@<TRIPOS>BOND
     1     1     2    1
     2     1    28    1
     3     1    29    1
     4     1    30    1
     5     2    27   ar
     6     2     3   ar
     7     3     4   ar
     8     3    31    1
     9     4     5   ar
    10     5     6    1
    11     5    26   ar
    12     6     7    1
    13     6    32    1
    14     6    33    1
    15     7    10    1
    16     7     8    1
    17     8     9    1
    18     8    34    1
    19     8    35    1
    20     9    25    1
    21     9    10    1
    22     9    11    1
    23    10    36    1
    24    10    37    1
    25    11    12    1
    26    11    38    1
    27    11    39    1
    28    12    13    1
    29    12    14    1
    30    12    24    1
    31    14    15   am
    32    14    40    1
    33    15    16    2
    34    15    17    1
    35    17    18    1
    36    17    23    1
    37    17    19    1
    38    19    20    1
    39    19    41    1
    40    19    42    1
    41    20    21    1
    42    21    22    2
    43    21    23   am
    44    23    43    1
    45    24    25    1
    46    24    44    1
    47    24    45    1
    48    26    27   ar
    49    26    46    1
@<TRIPOS>SUBSTRUCTURE
     1 ZINC001053792610        1 TEMP              0 ****  ****    0 ROOT


##########                                Name:    ZINC000446721380
##########                DOCK_Rotatable_Bonds:                   8
##########                         Heavy_Atoms:                  26
##########                    Molecular_Weight:             419.318
##########                DOCK_Rotatable_Bonds:                   8
##########                       Formal_Charge:           0.0199992
##########                     HBond_Acceptors:                   5
##########                        HBond_Donors:                   2
##########                         Heavy_Atoms:                  26
##########                          Grid_Score:          -32.325752
##########                     Grid_vdw_energy:          -30.782108
##########                      Grid_es_energy:           -1.543643
##########           Internal_energy_repulsive:            9.807119

@<TRIPOS>MOLECULE
ZINC000446721380
 49 51 1 0 0
SMALL
USER_CHARGES


@<TRIPOS>ATOM
      1 C1         -9.4680   -3.5963   60.6131 C.3     1  ZINC000446721380   -0.1200
      2 C2         -9.8201   -2.5981   59.5403 C.ar    1  ZINC000446721380   -0.0300
      3 C3         -9.5145   -1.2611   59.7138 C.ar    1  ZINC000446721380   -0.1600
      4 C4         -9.8363   -0.3427   58.7314 C.ar    1  ZINC000446721380   -0.0500
      5 C5        -10.4642   -0.7594   57.5738 C.ar    1  ZINC000446721380   -0.1500
      6 C6        -10.8141    0.2419   56.5033 C.3     1  ZINC000446721380    0.1900
      7 N7         -9.6202    0.5474   55.7113 N.am    1  ZINC000446721380   -0.7300
      8 C8         -9.7335    1.2421   54.5619 C.2     1  ZINC000446721380    0.7100
      9 O9        -10.8265    1.6165   54.1831 O.2     1  ZINC000446721380   -0.5700
     10 N10        -8.6353    1.5217   53.8325 N.am    1  ZINC000446721380   -0.6900
     11 C11        -8.7530    2.2432   52.6386 C.ar    1  ZINC000446721380    0.2000
     12 C12        -9.3887    3.4772   52.6315 C.ar    1  ZINC000446721380   -0.1200
     13 C13        -9.5029    4.1871   51.4518 C.ar    1  ZINC000446721380   -0.0800
     14 C14        -8.9849    3.6702   50.2788 C.ar    1  ZINC000446721380   -0.1300
     15 C15        -8.3512    2.4409   50.2818 C.ar    1  ZINC000446721380   -0.0700
     16 C16        -8.2286    1.7284   51.4592 C.ar    1  ZINC000446721380   -0.1300
     17 Br17       -7.3614    0.0479   51.4629 Br      1  ZINC000446721380   -0.0500
     18 C18       -10.7719   -2.1009   57.3972 C.ar    1  ZINC000446721380    0.1500
     19 O19       -11.3893   -2.5134   56.2589 O.3     1  ZINC000446721380   -0.3100
     20 C20       -12.3794   -3.5351   56.3917 C.3     1  ZINC000446721380    0.0700
     21 C21       -13.0352   -3.7895   55.0329 C.3     1  ZINC000446721380   -0.1200
     22 H22       -12.3286   -3.5927   54.2266 H       1  ZINC000446721380    0.1000
     23 C23       -14.3012   -2.9135   54.8699 C.3     1  ZINC000446721380   -0.1500
     24 C24       -15.2878   -3.8931   54.1847 C.3     1  ZINC000446721380    0.0500
     25 O25       -14.9913   -5.1609   54.8087 O.3     1  ZINC000446721380   -0.3800
     26 C26       -13.5596   -5.2360   54.9495 C.3     1  ZINC000446721380    0.0500
     27 C27       -10.4431   -3.0209   58.3818 C.ar    1  ZINC000446721380   -0.2100
     28 H28        -8.4659   -3.9853   60.4326 H       1  ZINC000446721380    0.0800
     29 H29        -9.4985   -3.1085   61.5874 H       1  ZINC000446721380    0.0700
     30 H30       -10.1851   -4.4171   60.5951 H       1  ZINC000446721380    0.0700
     31 H31        -9.0239   -0.9333   60.6184 H       1  ZINC000446721380    0.1300
     32 H32        -9.5968    0.7012   58.8694 H       1  ZINC000446721380    0.1300
     33 H33       -11.5841   -0.1747   55.8538 H       1  ZINC000446721380    0.0800
     34 H34       -11.1857    1.1553   56.9677 H       1  ZINC000446721380    0.0800
     35 H35        -8.7480    0.2498   56.0142 H       1  ZINC000446721380    0.4000
     36 H36        -7.7632    1.2231   54.1347 H       1  ZINC000446721380    0.4100
     37 H37        -9.7940    3.8817   53.5471 H       1  ZINC000446721380    0.1500
     38 H38        -9.9979    5.1470   51.4458 H       1  ZINC000446721380    0.1300
     39 H39        -9.0757    4.2273   49.3581 H       1  ZINC000446721380    0.1300
     40 H40        -7.9483    2.0394   49.3638 H       1  ZINC000446721380    0.1400
     41 H41       -11.9093   -4.4527   56.7457 H       1  ZINC000446721380    0.0700
     42 H42       -13.1374   -3.2159   57.1070 H       1  ZINC000446721380    0.0700
     43 H43       -14.6811   -2.5943   55.8405 H       1  ZINC000446721380    0.0800
     44 H44       -14.0998   -2.0539   54.2307 H       1  ZINC000446721380    0.0900
     45 H45       -16.3189   -3.6000   54.3820 H       1  ZINC000446721380    0.1000
     46 H46       -15.0995   -3.9399   53.1121 H       1  ZINC000446721380    0.0600
     47 H47       -13.1281   -5.7405   54.0850 H       1  ZINC000446721380    0.0600
     48 H48       -13.3047   -5.7758   55.8615 H       1  ZINC000446721380    0.0900
     49 H49       -10.6816   -4.0655   58.2467 H       1  ZINC000446721380    0.1300
@<TRIPOS>BOND
     1     1     2    1
     2     1    28    1
     3     1    29    1
     4     1    30    1
     5     2    27   ar
     6     2     3   ar
     7     3     4   ar
     8     3    31    1
     9     4     5   ar
    10     4    32    1
    11     5     6    1
    12     5    18   ar
    13     6     7    1
    14     6    33    1
    15     6    34    1
    16     7     8   am
    17     7    35    1
    18     8     9    2
    19     8    10   am
    20    10    11    1
    21    10    36    1
    22    11    16   ar
    23    11    12   ar
    24    12    13   ar
    25    12    37    1
    26    13    14   ar
    27    13    38    1
    28    14    15   ar
    29    14    39    1
    30    15    16   ar
    31    15    40    1
    32    16    17    1
    33    18    19    1
    34    18    27   ar
    35    19    20    1
    36    20    21    1
    37    20    41    1
    38    20    42    1
    39    21    22    1
    40    21    26    1
    41    21    23    1
    42    23    24    1
    43    23    43    1
    44    23    44    1
    45    24    25    1
    46    24    45    1
    47    24    46    1
    48    25    26    1
    49    26    47    1
    50    26    48    1
    51    27    49    1
@<TRIPOS>SUBSTRUCTURE
     1 ZINC000446721380        1 TEMP              0 ****  ****    0 ROOT


##########                                Name:    ZINC000854704989
##########                DOCK_Rotatable_Bonds:                   5
##########                         Heavy_Atoms:                  22
##########                    Molecular_Weight:             365.227
##########                DOCK_Rotatable_Bonds:                   5
##########                       Formal_Charge:        -1.78814e-07
##########                     HBond_Acceptors:                   5
##########                        HBond_Donors:                   1
##########                         Heavy_Atoms:                  22
##########                          Grid_Score:          -32.319393
##########                     Grid_vdw_energy:          -31.294176
##########                      Grid_es_energy:           -1.025216
##########           Internal_energy_repulsive:            7.040418

@<TRIPOS>MOLECULE
ZINC000854704989
 39 41 1 0 0
SMALL
USER_CHARGES


@<TRIPOS>ATOM
      1 O1         -9.8746   -2.0380   57.8424 O.2     1  ZINC000854704989   -0.5300
      2 C2        -10.4574   -3.1016   57.9237 C.2     1  ZINC000854704989    0.5700
      3 N3        -10.2580   -3.8993   58.9915 N.am    1  ZINC000854704989   -0.7300
      4 C4         -9.3342   -3.4874   60.0513 C.3     1  ZINC000854704989    0.2000
      5 C5         -9.9900   -2.4357   60.9086 C.2     1  ZINC000854704989   -0.0500
      6 C6         -9.3902   -1.6654   61.8469 C.2     1  ZINC000854704989   -0.1700
      7 C7        -10.4387   -0.8585   62.3480 C.2     1  ZINC000854704989    0.0000
      8 Br8       -10.3082    0.4607   63.6965 Br      1  ZINC000854704989    0.0600
      9 N9        -11.5119   -1.2044   61.6956 N.2     1  ZINC000854704989   -0.3200
     10 O10       -11.2807   -2.0745   60.8884 O.3     1  ZINC000854704989    0.1300
     11 C11       -11.3897   -3.5174   56.8541 C.ar    1  ZINC000854704989   -0.1300
     12 C12       -12.1322   -4.6914   56.9889 C.ar    1  ZINC000854704989   -0.0900
     13 C13       -13.0007   -5.0735   55.9873 C.ar    1  ZINC000854704989   -0.1200
     14 C14       -13.1362   -4.2960   54.8511 C.ar    1  ZINC000854704989   -0.0900
     15 C15       -12.4029   -3.1308   54.7112 C.ar    1  ZINC000854704989   -0.0800
     16 C16       -12.5569   -2.2900   53.4701 C.3     1  ZINC000854704989   -0.0800
     17 H17       -11.8589   -1.4537   53.5077 H       1  ZINC000854704989    0.0900
     18 C18       -13.9905   -1.7568   53.3876 C.3     1  ZINC000854704989   -0.1100
     19 C19       -14.1565   -0.9694   52.0842 C.3     1  ZINC000854704989   -0.1600
     20 C20       -13.8045   -1.8754   50.9014 C.3     1  ZINC000854704989    0.0600
     21 O21       -12.4696   -2.3613   51.0560 O.3     1  ZINC000854704989   -0.3800
     22 C22       -12.2652   -3.1446   52.2338 C.3     1  ZINC000854704989    0.0700
     23 C23       -11.5353   -2.7345   55.7077 C.ar    1  ZINC000854704989   -0.0500
     24 H24       -10.7260   -4.7463   59.0583 H       1  ZINC000854704989    0.4000
     25 H25        -9.0788   -4.3503   60.6663 H       1  ZINC000854704989    0.1100
     26 H26        -8.4279   -3.0787   59.6045 H       1  ZINC000854704989    0.1000
     27 H27        -8.3519   -1.6668   62.1443 H       1  ZINC000854704989    0.1900
     28 H28       -12.0268   -5.2996   57.8751 H       1  ZINC000854704989    0.1200
     29 H29       -13.5759   -5.9817   56.0904 H       1  ZINC000854704989    0.1300
     30 H30       -13.8170   -4.5999   54.0697 H       1  ZINC000854704989    0.1300
     31 H31       -14.6913   -2.5916   53.4010 H       1  ZINC000854704989    0.0700
     32 H32       -14.1855   -1.1018   54.2367 H       1  ZINC000854704989    0.0700
     33 H33       -15.1890   -0.6330   51.9908 H       1  ZINC000854704989    0.0800
     34 H34       -13.4907   -0.1064   52.0928 H       1  ZINC000854704989    0.0700
     35 H35       -14.4964   -2.7170   50.8698 H       1  ZINC000854704989    0.0500
     36 H36       -13.8796   -1.3078   49.9739 H       1  ZINC000854704989    0.1000
     37 H37       -11.2323   -3.4911   52.2651 H       1  ZINC000854704989    0.1000
     38 H38       -12.9366   -4.0031   52.2205 H       1  ZINC000854704989    0.0500
     39 H39       -10.9639   -1.8246   55.5975 H       1  ZINC000854704989    0.1400
@<TRIPOS>BOND
     1     1     2    2
     2     2     3   am
     3     2    11    1
     4     3     4    1
     5     3    24    1
     6     4     5    1
     7     4    25    1
     8     4    26    1
     9     5    10    1
    10     5     6    2
    11     6     7    1
    12     6    27    1
    13     7     8    1
    14     7     9    2
    15     9    10    1
    16    11    23   ar
    17    11    12   ar
    18    12    13   ar
    19    12    28    1
    20    13    14   ar
    21    13    29    1
    22    14    15   ar
    23    14    30    1
    24    15    16    1
    25    15    23   ar
    26    16    17    1
    27    16    22    1
    28    16    18    1
    29    18    19    1
    30    18    31    1
    31    18    32    1
    32    19    20    1
    33    19    33    1
    34    19    34    1
    35    20    21    1
    36    20    35    1
    37    20    36    1
    38    21    22    1
    39    22    37    1
    40    22    38    1
    41    23    39    1
@<TRIPOS>SUBSTRUCTURE
     1 ZINC000854704989        1 TEMP              0 ****  ****    0 ROOT


##########                                Name:    ZINC000279974681
##########                DOCK_Rotatable_Bonds:                   4
##########                         Heavy_Atoms:                  23
##########                    Molecular_Weight:              338.79
##########                DOCK_Rotatable_Bonds:                   4
##########                       Formal_Charge:           0.0100008
##########                     HBond_Acceptors:                   7
##########                        HBond_Donors:                   1
##########                         Heavy_Atoms:                  23
##########                          Grid_Score:          -32.311836
##########                     Grid_vdw_energy:          -31.274803
##########                      Grid_es_energy:           -1.037035
##########           Internal_energy_repulsive:            9.293430

@<TRIPOS>MOLECULE
ZINC000279974681
 42 45 1 0 0
SMALL
USER_CHARGES


@<TRIPOS>ATOM
      1 C1        -14.5081   -5.6731   55.7205 C.3     1  ZINC000279974681   -0.1400
      2 C2        -13.3128   -4.7979   56.1029 C.3     1  ZINC000279974681    0.0700
      3 H3        -12.5031   -5.4282   56.4708 H       1  ZINC000279974681    0.0600
      4 C4        -13.7310   -3.8102   57.1981 C.3     1  ZINC000279974681    0.1000
      5 N5        -12.6267   -2.8619   57.4141 N.am    1  ZINC000279974681   -0.6300
      6 C6        -12.1561   -2.6154   58.6528 C.2     1  ZINC000279974681    0.7100
      7 O7        -12.6448   -3.1801   59.6123 O.2     1  ZINC000279974681   -0.5600
      8 N8        -11.1438   -1.7429   58.8279 N.am    1  ZINC000279974681   -0.6700
      9 C9        -10.6545   -1.4866   60.1164 C.ar    1  ZINC000279974681    0.2000
     10 C10       -11.1712   -0.4340   60.8584 C.ar    1  ZINC000279974681   -0.1200
     11 C11       -10.6878   -0.1814   62.1316 C.ar    1  ZINC000279974681    0.0700
     12 C12        -9.6832   -0.9848   62.6651 C.ar    1  ZINC000279974681    0.0200
     13 C13        -9.1689   -2.0347   61.9213 C.ar    1  ZINC000279974681   -0.0700
     14 C14        -9.6560   -2.2899   60.6528 C.ar    1  ZINC000279974681   -0.0700
     15 Cl15       -9.0091   -3.6061   59.7239 Cl      1  ZINC000279974681   -0.0500
     16 O16        -9.3847   -0.5341   63.9196 O.3     1  ZINC000279974681   -0.3000
     17 C17        -9.9261    0.7983   63.9884 C.3     1  ZINC000279974681    0.2100
     18 O18       -11.0188    0.7720   63.0512 O.3     1  ZINC000279974681   -0.3000
     19 C19       -12.0510   -2.1911   56.2377 C.3     1  ZINC000279974681    0.0800
     20 C20       -11.7147   -3.2577   55.1893 C.3     1  ZINC000279974681    0.1100
     21 H21       -10.8985   -3.8817   55.5536 H       1  ZINC000279974681    0.0700
     22 C22       -11.2949   -2.5775   53.8847 C.3     1  ZINC000279974681   -0.1600
     23 C23       -11.8562   -3.1452   52.5795 C.3     1  ZINC000279974681   -0.1700
     24 C24       -12.3675   -1.8056   53.1136 C.3     1  ZINC000279974681   -0.1600
     25 O25       -12.8678   -4.0698   54.9559 O.3     1  ZINC000279974681   -0.3600
     26 H26       -14.2105   -6.3740   54.9405 H       1  ZINC000279974681    0.0700
     27 H27       -14.8480   -6.2266   56.5959 H       1  ZINC000279974681    0.0800
     28 H28       -15.3174   -5.0423   55.3528 H       1  ZINC000279974681    0.0700
     29 H29       -14.6232   -3.2690   56.8832 H       1  ZINC000279974681    0.0800
     30 H30       -13.9360   -4.3515   58.1217 H       1  ZINC000279974681    0.1100
     31 H31       -10.7540   -1.2925   58.0623 H       1  ZINC000279974681    0.4100
     32 H32       -11.9501    0.1883   60.4430 H       1  ZINC000279974681    0.1800
     33 H33        -8.3896   -2.6575   62.3349 H       1  ZINC000279974681    0.1500
     34 H34       -10.2886    1.0129   64.9936 H       1  ZINC000279974681    0.1400
     35 H35        -9.1787    1.5314   63.6848 H       1  ZINC000279974681    0.0900
     36 H36       -12.7740   -1.4869   55.8262 H       1  ZINC000279974681    0.0900
     37 H37       -11.1436   -1.6601   56.5254 H       1  ZINC000279974681    0.0900
     38 H38       -10.2793   -2.1821   53.8663 H       1  ZINC000279974681    0.1100
     39 H39       -11.2099   -3.1234   51.7021 H       1  ZINC000279974681    0.1000
     40 H40       -12.5247   -4.0032   52.6502 H       1  ZINC000279974681    0.1000
     41 H41       -13.3722   -1.7824   53.5356 H       1  ZINC000279974681    0.1000
     42 H42       -12.0574   -0.9027   52.5875 H       1  ZINC000279974681    0.1000
@<TRIPOS>BOND
     1     1     2    1
     2     1    26    1
     3     1    27    1
     4     1    28    1
     5     2     3    1
     6     2    25    1
     7     2     4    1
     8     4     5    1
     9     4    29    1
    10     4    30    1
    11     5     6   am
    12     5    19    1
    13     6     7    2
    14     6     8   am
    15     8     9    1
    16     8    31    1
    17     9    14   ar
    18     9    10   ar
    19    10    11   ar
    20    10    32    1
    21    11    18    1
    22    11    12   ar
    23    12    13   ar
    24    12    16    1
    25    13    14   ar
    26    13    33    1
    27    14    15    1
    28    16    17    1
    29    17    18    1
    30    17    34    1
    31    17    35    1
    32    19    20    1
    33    19    36    1
    34    19    37    1
    35    20    21    1
    36    20    22    1
    37    20    25    1
    38    22    24    1
    39    22    23    1
    40    22    38    1
    41    23    24    1
    42    23    39    1
    43    23    40    1
    44    24    41    1
    45    24    42    1
@<TRIPOS>SUBSTRUCTURE
     1 ZINC000279974681        1 TEMP              0 ****  ****    0 ROOT


##########                                Name:    ZINC001345266033
##########                DOCK_Rotatable_Bonds:                   4
##########                         Heavy_Atoms:                  29
##########                    Molecular_Weight:               389.5
##########                DOCK_Rotatable_Bonds:                   4
##########                       Formal_Charge:          -0.0100001
##########                     HBond_Acceptors:                   6
##########                        HBond_Donors:                   0
##########                         Heavy_Atoms:                  29
##########                          Grid_Score:          -32.291012
##########                     Grid_vdw_energy:          -31.637897
##########                      Grid_es_energy:           -0.653114
##########           Internal_energy_repulsive:           11.721151

@<TRIPOS>MOLECULE
ZINC001345266033
 56 61 1 0 0
SMALL
USER_CHARGES


@<TRIPOS>ATOM
      1 C1         -9.2292   -0.5237   63.7011 C.ar    1  ZINC001345266033   -0.1100
      2 C2         -9.2236   -1.4008   62.6195 C.ar    1  ZINC001345266033   -0.0900
      3 C3         -9.7589   -1.0370   61.4182 C.ar    1  ZINC001345266033   -0.1100
      4 C4        -10.3204    0.2338   61.2737 C.ar    1  ZINC001345266033    0.0000
      5 C5        -10.3287    1.1305   62.3730 C.ar    1  ZINC001345266033   -0.1100
      6 C6         -9.7689    0.7228   63.5938 C.ar    1  ZINC001345266033   -0.0900
      7 C7        -10.9000    2.4017   62.2005 C.ar    1  ZINC001345266033    0.1700
      8 N8        -11.4164    2.7573   61.0489 N.ar    1  ZINC001345266033   -0.4800
      9 C9        -11.4431    1.9741   59.9834 C.ar    1  ZINC001345266033    0.0900
     10 C10       -10.9121    0.6912   60.0169 C.ar    1  ZINC001345266033   -0.0700
     11 C11       -10.9437   -0.1795   58.8265 C.2     1  ZINC001345266033    0.2300
     12 N12        -9.9048   -0.6223   58.1546 N.2     1  ZINC001345266033   -0.2600
     13 N13       -10.2972   -1.3561   57.1753 N.2     1  ZINC001345266033   -0.3000
     14 C14       -11.6093   -1.4270   57.1615 C.2     1  ZINC001345266033    0.3600
     15 N15       -12.3835   -2.1268   56.2529 N.3     1  ZINC001345266033   -0.4600
     16 C16       -11.9648   -1.8412   54.8752 C.3     1  ZINC001345266033    0.0600
     17 C17       -12.9672   -2.4463   53.8904 C.3     1  ZINC001345266033   -0.1100
     18 C18       -12.9852   -3.9700   54.0615 C.3     1  ZINC001345266033   -0.0800
     19 C19       -13.2598   -4.2909   55.5346 C.3     1  ZINC001345266033   -0.1300
     20 C20       -14.7087   -4.5424   55.9491 C.3     1  ZINC001345266033   -0.1600
     21 C21       -13.7175   -5.7065   55.8814 C.3     1  ZINC001345266033   -0.1700
     22 C22       -12.3472   -3.5702   56.5311 C.3     1  ZINC001345266033    0.1100
     23 N23       -12.0665   -0.6867   58.2130 N.pl3   1  ZINC001345266033   -0.4600
     24 C24       -13.4621   -0.4702   58.6025 C.3     1  ZINC001345266033    0.1000
     25 C25       -13.6579   -0.9004   60.0577 C.3     1  ZINC001345266033   -0.1400
     26 H26       -13.0377   -0.2964   60.7199 H       1  ZINC001345266033    0.1000
     27 C27       -13.3276   -2.4034   60.2274 C.3     1  ZINC001345266033   -0.1500
     28 C28       -14.4445   -2.8742   61.1936 C.3     1  ZINC001345266033    0.0500
     29 O29       -15.5991   -2.1198   60.7666 O.3     1  ZINC001345266033   -0.3700
     30 C30       -15.1418   -0.7891   60.4581 C.3     1  ZINC001345266033    0.0300
     31 H31        -8.8026   -0.8384   64.6421 H       1  ZINC001345266033    0.1300
     32 H32        -8.7891   -2.3830   62.7330 H       1  ZINC001345266033    0.1300
     33 H33        -9.7482   -1.7255   60.5862 H       1  ZINC001345266033    0.1600
     34 H34        -9.7665    1.3918   64.4416 H       1  ZINC001345266033    0.1400
     35 H35       -10.9144    3.0958   63.0277 H       1  ZINC001345266033    0.1700
     36 H36       -11.8871    2.3393   59.0691 H       1  ZINC001345266033    0.1700
     37 H37       -11.9181   -0.7623   54.7273 H       1  ZINC001345266033    0.0700
     38 H38       -10.9793   -2.2724   54.6995 H       1  ZINC001345266033    0.0500
     39 H39       -13.9611   -2.0458   54.0902 H       1  ZINC001345266033    0.0800
     40 H40       -12.6717   -2.1978   52.8712 H       1  ZINC001345266033    0.0800
     41 H41       -13.7716   -4.3990   53.4406 H       1  ZINC001345266033    0.0700
     42 H42       -12.0190   -4.3824   53.7709 H       1  ZINC001345266033    0.0700
     43 H43       -15.0164   -4.2000   56.9371 H       1  ZINC001345266033    0.0900
     44 H44       -15.4716   -4.4851   55.1726 H       1  ZINC001345266033    0.0900
     45 H45       -13.8283   -6.4150   55.0605 H       1  ZINC001345266033    0.1000
     46 H46       -13.3731   -6.1299   56.8249 H       1  ZINC001345266033    0.1000
     47 H47       -11.3266   -3.9373   56.4230 H       1  ZINC001345266033    0.0600
     48 H48       -12.6977   -3.7551   57.5467 H       1  ZINC001345266033    0.0800
     49 H49       -13.7082    0.5867   58.5000 H       1  ZINC001345266033    0.1100
     50 H50       -14.1147   -1.0594   57.9585 H       1  ZINC001345266033    0.1100
     51 H51       -13.3928   -2.9261   59.2732 H       1  ZINC001345266033    0.0800
     52 H52       -12.3432   -2.5371   60.6762 H       1  ZINC001345266033    0.0900
     53 H53       -14.6223   -3.9439   61.0825 H       1  ZINC001345266033    0.1000
     54 H54       -14.1874   -2.6318   62.2247 H       1  ZINC001345266033    0.0600
     55 H55       -15.2453   -0.1492   61.3344 H       1  ZINC001345266033    0.0600
     56 H56       -15.7197   -0.3815   59.6287 H       1  ZINC001345266033    0.0900
@<TRIPOS>BOND
     1     1     6   ar
     2     1     2   ar
     3     1    31    1
     4     2     3   ar
     5     2    32    1
     6     3     4   ar
     7     3    33    1
     8     4    10   ar
     9     4     5   ar
    10     5     6   ar
    11     5     7   ar
    12     6    34    1
    13     7     8   ar
    14     7    35    1
    15     8     9   ar
    16     9    10   ar
    17     9    36    1
    18    10    11    1
    19    11    23    1
    20    11    12    2
    21    12    13    1
    22    13    14    2
    23    14    15    1
    24    14    23    1
    25    15    22    1
    26    15    16    1
    27    16    17    1
    28    16    37    1
    29    16    38    1
    30    17    18    1
    31    17    39    1
    32    17    40    1
    33    18    19    1
    34    18    41    1
    35    18    42    1
    36    19    21    1
    37    19    20    1
    38    19    22    1
    39    20    21    1
    40    20    43    1
    41    20    44    1
    42    21    45    1
    43    21    46    1
    44    22    47    1
    45    22    48    1
    46    23    24    1
    47    24    25    1
    48    24    49    1
    49    24    50    1
    50    25    26    1
    51    25    30    1
    52    25    27    1
    53    27    28    1
    54    27    51    1
    55    27    52    1
    56    28    29    1
    57    28    53    1
    58    28    54    1
    59    29    30    1
    60    30    55    1
    61    30    56    1
@<TRIPOS>SUBSTRUCTURE
     1 ZINC001345266033        1 TEMP              0 ****  ****    0 ROOT


##########                                Name:    ZINC001300804061
##########                DOCK_Rotatable_Bonds:                   5
##########                         Heavy_Atoms:                  27
##########                    Molecular_Weight:              390.55
##########                DOCK_Rotatable_Bonds:                   5
##########                       Formal_Charge:                0.01
##########                     HBond_Acceptors:                   7
##########                        HBond_Donors:                   0
##########                         Heavy_Atoms:                  27
##########                          Grid_Score:          -32.281246
##########                     Grid_vdw_energy:          -30.977804
##########                      Grid_es_energy:           -1.303441
##########           Internal_energy_repulsive:           18.058212

@<TRIPOS>MOLECULE
ZINC001300804061
 57 60 1 0 0
SMALL
USER_CHARGES


@<TRIPOS>ATOM
      1 C1        -10.7040   -0.8886   53.5691 C.3     1  ZINC001300804061    0.0300
      2 O2        -11.2742   -2.1988   53.5874 O.3     1  ZINC001300804061   -0.3800
      3 C3        -12.0794   -2.4663   54.7371 C.3     1  ZINC001300804061    0.1000
      4 H4        -12.8102   -1.6674   54.8635 H       1  ZINC001300804061    0.0700
      5 C5        -11.1879   -2.5441   55.9784 C.3     1  ZINC001300804061    0.0500
      6 N6        -12.0122   -2.8399   57.1572 N.3     1  ZINC001300804061   -0.4600
      7 C7        -11.2571   -2.7886   58.3164 C.2     1  ZINC001300804061    0.3600
      8 N8        -10.2884   -3.6097   58.6514 N.2     1  ZINC001300804061   -0.3000
      9 N9         -9.7993   -3.2756   59.7919 N.2     1  ZINC001300804061   -0.2500
     10 C10       -10.4275   -2.2177   60.2562 C.2     1  ZINC001300804061    0.2600
     11 C11       -10.1621   -1.5314   61.5303 C.2     1  ZINC001300804061    0.0400
     12 C12        -9.1260   -1.7887   62.3771 C.2     1  ZINC001300804061   -0.1300
     13 C13        -9.2613   -0.9032   63.4638 C.2     1  ZINC001300804061   -0.2100
     14 C14       -10.3593   -0.1568   63.2316 C.2     1  ZINC001300804061    0.0100
     15 C15       -10.8912    0.9268   64.1339 C.3     1  ZINC001300804061   -0.0800
     16 O16       -10.8979   -0.5345   62.0605 O.3     1  ZINC001300804061   -0.1700
     17 N17       -11.3773   -1.8709   59.3210 N.pl3   1  ZINC001300804061   -0.4600
     18 C18       -12.3246   -0.7557   59.3927 C.3     1  ZINC001300804061    0.1200
     19 C19       -13.7405   -1.2712   59.1278 C.3     1  ZINC001300804061   -0.1000
     20 H20       -13.7975   -1.6673   58.1138 H       1  ZINC001300804061    0.0900
     21 C21       -14.7343   -0.1235   59.2799 C.3     1  ZINC001300804061   -0.1200
     22 C22       -16.1123   -0.5309   58.7670 C.3     1  ZINC001300804061   -0.1200
     23 C23       -16.7438   -1.5501   59.7190 C.3     1  ZINC001300804061   -0.0800
     24 S24       -15.7174   -3.0499   59.7380 S.3     1  ZINC001300804061   -0.2600
     25 C25       -14.0720   -2.3827   60.1270 C.3     1  ZINC001300804061   -0.0700
     26 C26       -12.6833   -4.1391   57.0233 C.3     1  ZINC001300804061    0.0600
     27 C27       -13.6196   -4.1089   55.8131 C.3     1  ZINC001300804061   -0.1100
     28 C28       -12.8075   -3.8006   54.5522 C.3     1  ZINC001300804061   -0.0900
     29 H29       -12.0775   -4.5929   54.3862 H       1  ZINC001300804061    0.0800
     30 C30       -13.7471   -3.7107   53.3481 C.3     1  ZINC001300804061   -0.1400
     31 H31       -11.5012   -0.1452   53.5834 H       1  ZINC001300804061    0.0400
     32 H32       -10.0684   -0.7567   54.4446 H       1  ZINC001300804061    0.0400
     33 H33       -10.1077   -0.7644   52.6651 H       1  ZINC001300804061    0.0900
     34 H34       -10.4481   -3.3336   55.8455 H       1  ZINC001300804061    0.0700
     35 H35       -10.6794   -1.5905   56.1209 H       1  ZINC001300804061    0.0800
     36 H36        -8.3513   -2.5289   62.2414 H       1  ZINC001300804061    0.1600
     37 H37        -8.6082   -0.8351   64.3212 H       1  ZINC001300804061    0.1600
     38 H38       -10.4437    1.8816   63.8578 H       1  ZINC001300804061    0.0900
     39 H39       -11.9743    0.9890   64.0277 H       1  ZINC001300804061    0.0800
     40 H40       -10.6404    0.6937   65.1687 H       1  ZINC001300804061    0.0900
     41 H41       -12.2815   -0.3056   60.3845 H       1  ZINC001300804061    0.1100
     42 H42       -12.0636   -0.0086   58.6430 H       1  ZINC001300804061    0.1000
     43 H43       -14.8091    0.1492   60.3325 H       1  ZINC001300804061    0.0700
     44 H44       -14.3795    0.7362   58.7114 H       1  ZINC001300804061    0.0800
     45 H45       -16.7507    0.3505   58.7053 H       1  ZINC001300804061    0.0800
     46 H46       -16.0133   -0.9741   57.7762 H       1  ZINC001300804061    0.0800
     47 H47       -16.7945   -1.1294   60.7232 H       1  ZINC001300804061    0.0800
     48 H48       -17.7475   -1.7989   59.3742 H       1  ZINC001300804061    0.1100
     49 H49       -13.3284   -3.1758   60.0481 H       1  ZINC001300804061    0.1000
     50 H50       -14.0717   -1.9785   61.1393 H       1  ZINC001300804061    0.0900
     51 H51       -11.9366   -4.9211   56.8853 H       1  ZINC001300804061    0.0600
     52 H52       -13.2612   -4.3440   57.9246 H       1  ZINC001300804061    0.0800
     53 H53       -14.1057   -5.0785   55.7049 H       1  ZINC001300804061    0.0800
     54 H54       -14.3750   -3.3364   55.9567 H       1  ZINC001300804061    0.0800
     55 H55       -14.4752   -2.9167   53.5140 H       1  ZINC001300804061    0.0500
     56 H56       -13.1682   -3.4912   52.4510 H       1  ZINC001300804061    0.0600
     57 H57       -14.2674   -4.6601   53.2214 H       1  ZINC001300804061    0.0600
@<TRIPOS>BOND
     1     1     2    1
     2     1    31    1
     3     1    32    1
     4     1    33    1
     5     2     3    1
     6     3     4    1
     7     3    28    1
     8     3     5    1
     9     5     6    1
    10     5    34    1
    11     5    35    1
    12     6     7    1
    13     6    26    1
    14     7    17    1
    15     7     8    2
    16     8     9    1
    17     9    10    2
    18    10    11    1
    19    10    17    1
    20    11    16    1
    21    11    12    2
    22    12    13    1
    23    12    36    1
    24    13    14    2
    25    13    37    1
    26    14    15    1
    27    14    16    1
    28    15    38    1
    29    15    39    1
    30    15    40    1
    31    17    18    1
    32    18    19    1
    33    18    41    1
    34    18    42    1
    35    19    20    1
    36    19    25    1
    37    19    21    1
    38    21    22    1
    39    21    43    1
    40    21    44    1
    41    22    23    1
    42    22    45    1
    43    22    46    1
    44    23    24    1
    45    23    47    1
    46    23    48    1
    47    24    25    1
    48    25    49    1
    49    25    50    1
    50    26    27    1
    51    26    51    1
    52    26    52    1
    53    27    28    1
    54    27    53    1
    55    27    54    1
    56    28    29    1
    57    28    30    1
    58    30    55    1
    59    30    56    1
    60    30    57    1
@<TRIPOS>SUBSTRUCTURE
     1 ZINC001300804061        1 TEMP              0 ****  ****    0 ROOT


##########                                Name:    ZINC000675319328
##########                DOCK_Rotatable_Bonds:                   7
##########                         Heavy_Atoms:                  26
##########                    Molecular_Weight:             363.475
##########                DOCK_Rotatable_Bonds:                   7
##########                       Formal_Charge:          -0.0200007
##########                     HBond_Acceptors:                   6
##########                        HBond_Donors:                   1
##########                         Heavy_Atoms:                  26
##########                          Grid_Score:          -32.271538
##########                     Grid_vdw_energy:          -31.466202
##########                      Grid_es_energy:           -0.805335
##########           Internal_energy_repulsive:           22.289747

@<TRIPOS>MOLECULE
ZINC000675319328
 56 58 1 0 0
SMALL
USER_CHARGES


@<TRIPOS>ATOM
      1 C1         -9.6063   -3.9942   59.6892 C.3     1  ZINC000675319328   -0.1600
      2 C2        -10.2796   -3.0833   58.6609 C.3     1  ZINC000675319328    0.1600
      3 H3         -9.8070   -3.2216   57.6884 H       1  ZINC000675319328    0.0900
      4 C4        -10.1311   -1.6243   59.0971 C.3     1  ZINC000675319328   -0.1200
      5 C5        -11.1485   -1.3148   60.1970 C.3     1  ZINC000675319328   -0.1200
      6 H6        -11.5011   -2.2331   60.6666 H       1  ZINC000675319328    0.0800
      7 C7        -10.5438   -0.3507   61.2538 C.3     1  ZINC000675319328   -0.1500
      8 C8        -11.8211    0.3589   61.7695 C.3     1  ZINC000675319328    0.0500
      9 O9        -12.6623    0.5034   60.6142 O.3     1  ZINC000675319328   -0.3900
     10 C10       -12.3307   -0.4951   59.6370 C.3     1  ZINC000675319328    0.0500
     11 N11       -11.7017   -3.4221   58.5653 N.am    1  ZINC000675319328   -0.7400
     12 C12       -12.1118   -4.3706   57.7001 C.2     1  ZINC000675319328    0.7000
     13 O13       -11.3015   -4.9451   56.9990 O.2     1  ZINC000675319328   -0.5900
     14 N14       -13.4201   -4.6822   57.6122 N.am    1  ZINC000675319328   -0.6200
     15 C15       -14.3798   -3.9675   58.4765 C.3     1  ZINC000675319328    0.1300
     16 C16       -15.6588   -3.5991   57.7061 C.3     1  ZINC000675319328   -0.1300
     17 C17       -15.2972   -3.1428   56.3098 C.3     1  ZINC000675319328    0.0700
     18 N18       -15.3417   -4.2902   55.4050 N.3     1  ZINC000675319328   -0.5500
     19 C19       -15.8255   -3.8941   54.0757 C.3     1  ZINC000675319328    0.1000
     20 C20       -14.9916   -2.7507   53.5578 C.ar    1  ZINC000675319328   -0.0900
     21 C21       -13.7551   -2.9987   52.9915 C.ar    1  ZINC000675319328   -0.0900
     22 C22       -12.9896   -1.9508   52.5162 C.ar    1  ZINC000675319328   -0.1500
     23 C23       -13.4617   -0.6524   52.6068 C.ar    1  ZINC000675319328    0.1000
     24 F24       -12.7143    0.3727   52.1420 F       1  ZINC000675319328   -0.1400
     25 C25       -14.7005   -0.4053   53.1737 C.ar    1  ZINC000675319328   -0.1500
     26 C26       -15.4664   -1.4552   53.6440 C.ar    1  ZINC000675319328   -0.0700
     27 C27       -14.1576   -5.0575   55.3056 C.3     1  ZINC000675319328    0.0500
     28 C28       -13.8317   -5.7019   56.6688 C.3     1  ZINC000675319328    0.1100
     29 H29        -9.7120   -5.0336   59.3784 H       1  ZINC000675319328    0.0600
     30 H30        -8.5482   -3.7422   59.7604 H       1  ZINC000675319328    0.0700
     31 H31       -10.0788   -3.8560   60.6617 H       1  ZINC000675319328    0.0500
     32 H32        -9.1230   -1.4598   59.4778 H       1  ZINC000675319328    0.0700
     33 H33       -10.3083   -0.9701   58.2435 H       1  ZINC000675319328    0.0900
     34 H34       -10.0514   -0.9034   62.0538 H       1  ZINC000675319328    0.0800
     35 H35        -9.8593    0.3602   60.7910 H       1  ZINC000675319328    0.0800
     36 H36       -12.3157   -0.2533   62.5234 H       1  ZINC000675319328    0.0600
     37 H37       -11.5708    1.3372   62.1801 H       1  ZINC000675319328    0.0900
     38 H38       -12.0355   -0.0154   58.7037 H       1  ZINC000675319328    0.0700
     39 H39       -13.1896   -1.1439   59.4651 H       1  ZINC000675319328    0.0700
     40 H40       -12.3481   -2.9638   59.1247 H       1  ZINC000675319328    0.3900
     41 H41       -14.6428   -4.6047   59.3208 H       1  ZINC000675319328    0.0600
     42 H42       -13.9133   -3.0560   58.8503 H       1  ZINC000675319328    0.0900
     43 H43       -16.3099   -4.4711   57.6456 H       1  ZINC000675319328    0.0800
     44 H44       -16.1777   -2.7949   58.2276 H       1  ZINC000675319328    0.0800
     45 H45       -16.0100   -2.3883   55.9769 H       1  ZINC000675319328    0.0700
     46 H46       -14.2925   -2.7201   56.3133 H       1  ZINC000675319328    0.0400
     47 H47       -15.7459   -4.7402   53.3931 H       1  ZINC000675319328    0.0900
     48 H48       -16.8672   -3.5813   54.1465 H       1  ZINC000675319328    0.0400
     49 H49       -13.3871   -4.0115   52.9209 H       1  ZINC000675319328    0.1300
     50 H50       -12.0233   -2.1447   52.0745 H       1  ZINC000675319328    0.1400
     51 H51       -15.0697    0.6071   53.2453 H       1  ZINC000675319328    0.1400
     52 H52       -16.4328   -1.2628   54.0859 H       1  ZINC000675319328    0.1300
     53 H53       -14.2946   -5.8390   54.5582 H       1  ZINC000675319328    0.0900
     54 H54       -13.3324   -4.4120   55.0049 H       1  ZINC000675319328    0.0300
     55 H55       -13.0253   -6.4247   56.5447 H       1  ZINC000675319328    0.0700
     56 H56       -14.7172   -6.2094   57.0511 H       1  ZINC000675319328    0.0900
@<TRIPOS>BOND
     1     1     2    1
     2     1    29    1
     3     1    30    1
     4     1    31    1
     5     2     3    1
     6     2     4    1
     7     2    11    1
     8     4     5    1
     9     4    32    1
    10     4    33    1
    11     5     6    1
    12     5    10    1
    13     5     7    1
    14     7     8    1
    15     7    34    1
    16     7    35    1
    17     8     9    1
    18     8    36    1
    19     8    37    1
    20     9    10    1
    21    10    38    1
    22    10    39    1
    23    11    12   am
    24    11    40    1
    25    12    13    2
    26    12    14   am
    27    14    28    1
    28    14    15    1
    29    15    16    1
    30    15    41    1
    31    15    42    1
    32    16    17    1
    33    16    43    1
    34    16    44    1
    35    17    18    1
    36    17    45    1
    37    17    46    1
    38    18    19    1
    39    18    27    1
    40    19    20    1
    41    19    47    1
    42    19    48    1
    43    20    26   ar
    44    20    21   ar
    45    21    22   ar
    46    21    49    1
    47    22    23   ar
    48    22    50    1
    49    23    24    1
    50    23    25   ar
    51    25    26   ar
    52    25    51    1
    53    26    52    1
    54    27    28    1
    55    27    53    1
    56    27    54    1
    57    28    55    1
    58    28    56    1
@<TRIPOS>SUBSTRUCTURE
     1 ZINC000675319328        1 TEMP              0 ****  ****    0 ROOT


##########                                Name:    ZINC000032503012
##########                DOCK_Rotatable_Bonds:                   8
##########                         Heavy_Atoms:                  27
##########                    Molecular_Weight:             390.503
##########                DOCK_Rotatable_Bonds:                   8
##########                       Formal_Charge:           0.0099995
##########                     HBond_Acceptors:                   7
##########                        HBond_Donors:                   2
##########                         Heavy_Atoms:                  27
##########                          Grid_Score:          -32.260357
##########                     Grid_vdw_energy:          -28.675770
##########                      Grid_es_energy:           -3.584588
##########           Internal_energy_repulsive:           42.695164

@<TRIPOS>MOLECULE
ZINC000032503012
 53 54 1 0 0
SMALL
USER_CHARGES


@<TRIPOS>ATOM
      1 C1        -14.6663   -0.2103   54.2729 C.3     1  ZINC000032503012   -0.1200
      2 C2        -14.0289   -1.4682   53.7413 C.ar    1  ZINC000032503012   -0.0500
      3 C3        -13.4007   -1.4567   52.5099 C.ar    1  ZINC000032503012   -0.1600
      4 C4        -12.8148   -2.6093   52.0192 C.ar    1  ZINC000032503012   -0.0700
      5 C5        -12.8560   -3.7751   52.7589 C.ar    1  ZINC000032503012   -0.1500
      6 C6        -13.4860   -3.7891   53.9950 C.ar    1  ZINC000032503012    0.1300
      7 O7        -13.5275   -4.9349   54.7249 O.3     1  ZINC000032503012   -0.2800
      8 C8        -14.1449   -4.8624   56.0115 C.3     1  ZINC000032503012    0.0700
      9 H9        -15.0834   -4.3134   55.9338 H       1  ZINC000032503012    0.1100
     10 C10       -14.4225   -6.2769   56.5244 C.3     1  ZINC000032503012   -0.1800
     11 C11       -13.2252   -4.1518   56.9707 C.2     1  ZINC000032503012    0.5200
     12 O12       -13.5537   -4.0036   58.1287 O.2     1  ZINC000032503012   -0.4900
     13 N13       -12.0374   -3.6808   56.5417 N.am    1  ZINC000032503012   -0.6700
     14 C14       -11.1834   -3.0210   57.4322 C.ar    1  ZINC000032503012    0.1300
     15 C15       -10.5560   -3.7294   58.4484 C.ar    1  ZINC000032503012   -0.0600
     16 C16        -9.7134   -3.0751   59.3260 C.ar    1  ZINC000032503012   -0.1200
     17 C17        -9.4950   -1.7163   59.1937 C.ar    1  ZINC000032503012   -0.0300
     18 C18       -10.1187   -1.0078   58.1829 C.ar    1  ZINC000032503012   -0.6600
     19 S19        -9.8369    0.7238   58.0186 S.o2    1  ZINC000032503012    2.7000
     20 O20        -8.4376    0.8867   57.8324 O.2     1  ZINC000032503012   -0.9600
     21 O21       -10.8048    1.2018   57.0945 O.2     1  ZINC000032503012   -0.9500
     22 N22       -10.1989    1.4198   59.4769 N.am    1  ZINC000032503012   -1.1100
     23 C23       -11.5488    1.2962   60.0326 C.3     1  ZINC000032503012    0.1700
     24 C24       -11.7544   -0.1245   60.5619 C.3     1  ZINC000032503012   -0.1900
     25 C25       -11.7229    2.2970   61.1768 C.3     1  ZINC000032503012   -0.1500
     26 C26       -12.5789    1.5873   58.9394 C.3     1  ZINC000032503012   -0.1800
     27 C27       -10.9570   -1.6572   57.2982 C.ar    1  ZINC000032503012   -0.0400
     28 C28       -14.0679   -2.6303   54.4875 C.ar    1  ZINC000032503012   -0.2100
     29 H29       -13.9333    0.3521   54.8512 H       1  ZINC000032503012    0.0700
     30 H30       -15.0173    0.3992   53.4401 H       1  ZINC000032503012    0.0700
     31 H31       -15.5095   -0.4725   54.9120 H       1  ZINC000032503012    0.0700
     32 H32       -13.3677   -0.5463   51.9300 H       1  ZINC000032503012    0.1300
     33 H33       -12.3249   -2.5980   51.0568 H       1  ZINC000032503012    0.1300
     34 H34       -12.3986   -4.6750   52.3751 H       1  ZINC000032503012    0.1300
     35 H35       -15.0879   -6.7909   55.8307 H       1  ZINC000032503012    0.0800
     36 H36       -13.4841   -6.8258   56.6021 H       1  ZINC000032503012    0.0800
     37 H37       -14.8935   -6.2216   57.5058 H       1  ZINC000032503012    0.0800
     38 H38       -11.7746   -3.7993   55.6154 H       1  ZINC000032503012    0.4100
     39 H39       -10.7268   -4.7907   58.5527 H       1  ZINC000032503012    0.1400
     40 H40        -9.2251   -3.6255   60.1165 H       1  ZINC000032503012    0.1400
     41 H41        -8.8360   -1.2071   59.8814 H       1  ZINC000032503012    0.1500
     42 H42        -9.5171    1.9093   59.9632 H       1  ZINC000032503012    0.4200
     43 H43       -10.9189   -0.3963   61.2070 H       1  ZINC000032503012    0.0700
     44 H44       -12.6827   -0.1693   61.1313 H       1  ZINC000032503012    0.0800
     45 H45       -11.8079   -0.8200   59.7243 H       1  ZINC000032503012    0.0700
     46 H46       -11.5764    3.3091   60.7998 H       1  ZINC000032503012    0.0700
     47 H47       -12.7272    2.2050   61.5902 H       1  ZINC000032503012    0.0700
     48 H48       -10.9890    2.0895   61.9556 H       1  ZINC000032503012    0.0600
     49 H49       -12.5904    0.7658   58.2230 H       1  ZINC000032503012    0.0900
     50 H50       -13.5664    1.6911   59.3890 H       1  ZINC000032503012    0.0700
     51 H51       -12.3138    2.5122   58.4273 H       1  ZINC000032503012    0.0600
     52 H52       -11.4438   -1.1034   56.5091 H       1  ZINC000032503012    0.1400
     53 H53       -14.5589   -2.6387   55.4495 H       1  ZINC000032503012    0.1300
@<TRIPOS>BOND
     1     1     2    1
     2     1    29    1
     3     1    30    1
     4     1    31    1
     5     2    28   ar
     6     2     3   ar
     7     3     4   ar
     8     3    32    1
     9     4     5   ar
    10     4    33    1
    11     5     6   ar
    12     5    34    1
    13     6     7    1
    14     6    28   ar
    15     7     8    1
    16     8     9    1
    17     8    10    1
    18     8    11    1
    19    10    35    1
    20    10    36    1
    21    10    37    1
    22    11    12    2
    23    11    13   am
    24    13    14    1
    25    13    38    1
    26    14    27   ar
    27    14    15   ar
    28    15    16   ar
    29    15    39    1
    30    16    17   ar
    31    16    40    1
    32    17    18   ar
    33    17    41    1
    34    18    19    1
    35    18    27   ar
    36    19    20    2
    37    19    21    2
    38    19    22   am
    39    22    23    1
    40    22    42    1
    41    23    24    1
    42    23    25    1
    43    23    26    1
    44    24    43    1
    45    24    44    1
    46    24    45    1
    47    25    46    1
    48    25    47    1
    49    25    48    1
    50    26    49    1
    51    26    50    1
    52    26    51    1
    53    27    52    1
    54    28    53    1
@<TRIPOS>SUBSTRUCTURE
     1 ZINC000032503012        1 TEMP              0 ****  ****    0 ROOT


##########                                Name:    ZINC000461336108
##########                DOCK_Rotatable_Bonds:                   5
##########                         Heavy_Atoms:                  26
##########                    Molecular_Weight:             373.522
##########                DOCK_Rotatable_Bonds:                   5
##########                       Formal_Charge:        -3.42727e-07
##########                     HBond_Acceptors:                   7
##########                        HBond_Donors:                   0
##########                         Heavy_Atoms:                  26
##########                          Grid_Score:          -32.248180
##########                     Grid_vdw_energy:          -31.761612
##########                      Grid_es_energy:           -0.486568
##########           Internal_energy_repulsive:           12.560701

@<TRIPOS>MOLECULE
ZINC000461336108
 53 56 1 0 0
SMALL
USER_CHARGES


@<TRIPOS>ATOM
      1 C1         -9.2681   -2.4830   59.8539 C.3     1  ZINC000461336108   -0.1300
      2 C2        -10.3413   -2.0812   60.8677 C.3     1  ZINC000461336108    0.0700
      3 H3        -10.8750   -2.9711   61.2013 H       1  ZINC000461336108    0.0800
      4 C4         -9.6890   -1.4190   62.0482 C.2     1  ZINC000461336108    0.5300
      5 O5         -8.6692   -1.9004   62.4945 O.2     1  ZINC000461336108   -0.5300
      6 N6        -10.1857   -0.3208   62.6273 N.am    1  ZINC000461336108   -0.6100
      7 C7         -9.4946    0.2272   63.7969 C.3     1  ZINC000461336108    0.0700
      8 C8        -11.3860    0.3568   62.1454 C.3     1  ZINC000461336108    0.1200
      9 C9        -12.1915   -0.5811   61.2444 C.3     1  ZINC000461336108    0.0400
     10 N10       -11.2878   -1.1536   60.2340 N.3     1  ZINC000461336108   -0.4300
     11 C11       -12.0029   -1.7872   59.2302 C.2     1  ZINC000461336108    0.3300
     12 N12       -12.3173   -3.0602   59.1807 N.2     1  ZINC000461336108   -0.2500
     13 N13       -12.9841   -3.3041   58.1095 N.2     1  ZINC000461336108   -0.2800
     14 C14       -13.1336   -2.2103   57.4175 C.2     1  ZINC000461336108    0.2000
     15 C15       -13.8563   -2.0774   56.1018 C.3     1  ZINC000461336108   -0.0300
     16 C16       -12.9533   -2.5743   54.9713 C.3     1  ZINC000461336108   -0.0900
     17 C17       -13.0133   -4.1187   54.8686 C.3     1  ZINC000461336108   -0.1200
     18 C18       -12.5904   -4.3804   53.4017 C.3     1  ZINC000461336108   -0.1200
     19 C19       -13.2470   -3.2320   52.6081 C.3     1  ZINC000461336108   -0.1300
     20 C20       -13.4776   -2.0838   53.6060 C.3     1  ZINC000461336108   -0.1200
     21 N21       -12.5182   -1.2040   58.1093 N.pl3   1  ZINC000461336108   -0.4900
     22 C22       -12.4243    0.2061   57.7231 C.3     1  ZINC000461336108    0.1700
     23 C23       -11.0304    0.5004   57.2314 C.2     1  ZINC000461336108   -0.2400
     24 C24       -10.0173    0.9141   57.9940 C.2     1  ZINC000461336108   -0.0900
     25 C25        -8.8259    1.1199   57.3199 C.2     1  ZINC000461336108   -0.1400
     26 C26        -8.8716    0.8732   56.0099 C.2     1  ZINC000461336108   -0.2000
     27 S27       -10.4889    0.3435   55.5654 S.3     1  ZINC000461336108    0.1200
     28 H28        -8.7333   -1.5941   59.5193 H       1  ZINC000461336108    0.0800
     29 H29        -8.5670   -3.1743   60.3216 H       1  ZINC000461336108    0.0800
     30 H30        -9.7394   -2.9670   58.9985 H       1  ZINC000461336108    0.0700
     31 H31        -8.6250   -0.3885   64.0267 H       1  ZINC000461336108    0.0900
     32 H32        -9.1720    1.2464   63.5839 H       1  ZINC000461336108    0.0700
     33 H33       -10.1725    0.2316   64.6505 H       1  ZINC000461336108    0.0600
     34 H34       -11.9986    0.6557   62.9960 H       1  ZINC000461336108    0.0900
     35 H35       -11.0985    1.2432   61.5799 H       1  ZINC000461336108    0.0900
     36 H36       -12.6251   -1.3813   61.8442 H       1  ZINC000461336108    0.0500
     37 H37       -12.9851   -0.0207   60.7500 H       1  ZINC000461336108    0.1100
     38 H38       -14.7687   -2.6731   56.1266 H       1  ZINC000461336108    0.0800
     39 H39       -14.1102   -1.0311   55.9308 H       1  ZINC000461336108    0.1000
     40 H40       -11.9277   -2.2401   55.1285 H       1  ZINC000461336108    0.0900
     41 H41       -12.3096   -4.5796   55.5616 H       1  ZINC000461336108    0.0600
     42 H42       -14.0263   -4.4787   55.0486 H       1  ZINC000461336108    0.0600
     43 H43       -11.5055   -4.3399   53.3044 H       1  ZINC000461336108    0.0700
     44 H44       -12.9690   -5.3444   53.0617 H       1  ZINC000461336108    0.0700
     45 H45       -12.5833   -2.9039   51.8081 H       1  ZINC000461336108    0.0700
     46 H46       -14.1989   -3.5622   52.1921 H       1  ZINC000461336108    0.0600
     47 H47       -14.5415   -1.8566   53.6744 H       1  ZINC000461336108    0.0700
     48 H48       -12.9259   -1.1982   53.2903 H       1  ZINC000461336108    0.0700
     49 H49       -13.1412    0.4137   56.9286 H       1  ZINC000461336108    0.1200
     50 H50       -12.6455    0.8346   58.5857 H       1  ZINC000461336108    0.1000
     51 H51       -10.1190    1.0765   59.0569 H       1  ZINC000461336108    0.1400
     52 H52        -7.9277    1.4550   57.8170 H       1  ZINC000461336108    0.1500
     53 H53        -8.0415    0.9791   55.3271 H       1  ZINC000461336108    0.1700
@<TRIPOS>BOND
     1     1     2    1
     2     1    28    1
     3     1    29    1
     4     1    30    1
     5     2     3    1
     6     2    10    1
     7     2     4    1
     8     4     5    2
     9     4     6   am
    10     6     7    1
    11     6     8    1
    12     7    31    1
    13     7    32    1
    14     7    33    1
    15     8     9    1
    16     8    34    1
    17     8    35    1
    18     9    10    1
    19     9    36    1
    20     9    37    1
    21    10    11    1
    22    11    21    1
    23    11    12    2
    24    12    13    1
    25    13    14    2
    26    14    15    1
    27    14    21    1
    28    15    16    1
    29    15    38    1
    30    15    39    1
    31    16    20    1
    32    16    17    1
    33    16    40    1
    34    17    18    1
    35    17    41    1
    36    17    42    1
    37    18    19    1
    38    18    43    1
    39    18    44    1
    40    19    20    1
    41    19    45    1
    42    19    46    1
    43    20    47    1
    44    20    48    1
    45    21    22    1
    46    22    23    1
    47    22    49    1
    48    22    50    1
    49    23    27    1
    50    23    24    2
    51    24    25    1
    52    24    51    1
    53    25    26    2
    54    25    52    1
    55    26    27    1
    56    26    53    1
@<TRIPOS>SUBSTRUCTURE
     1 ZINC000461336108        1 TEMP              0 ****  ****    0 ROOT


##########                                Name:    ZINC001296589646
##########                DOCK_Rotatable_Bonds:                   8
##########                         Heavy_Atoms:                  29
##########                    Molecular_Weight:             398.548
##########                DOCK_Rotatable_Bonds:                   8
##########                       Formal_Charge:          -0.0200008
##########                     HBond_Acceptors:                   6
##########                        HBond_Donors:                   0
##########                         Heavy_Atoms:                  29
##########                          Grid_Score:          -32.226810
##########                     Grid_vdw_energy:          -31.773794
##########                      Grid_es_energy:           -0.453017
##########           Internal_energy_repulsive:           25.978230

@<TRIPOS>MOLECULE
ZINC001296589646
 63 66 1 0 0
SMALL
USER_CHARGES


@<TRIPOS>ATOM
      1 C1         -0.6547    5.5000   46.0646 C.3     1  ZINC001296589646   -0.1500
      2 C2         -1.5011    4.2254   46.0533 C.3     1  ZINC001296589646    0.0500
      3 O3         -1.0168    3.3231   47.0500 O.3     1  ZINC001296589646   -0.3600
      4 C4         -1.6535    2.0439   47.0346 C.3     1  ZINC001296589646    0.1800
      5 C5         -1.4958    1.3851   45.6884 C.2     1  ZINC001296589646    0.1500
      6 N6         -2.4559    0.9304   44.9341 N.2     1  ZINC001296589646   -0.2600
      7 N7         -1.9691    0.4314   43.8542 N.2     1  ZINC001296589646   -0.3200
      8 C8         -0.6617    0.5420   43.8619 C.2     1  ZINC001296589646    0.3600
      9 N9          0.2068    0.1174   42.8688 N.3     1  ZINC001296589646   -0.4300
     10 C10        -0.5368   -0.4850   41.7330 C.3     1  ZINC001296589646    0.0300
     11 C11         0.4758   -0.4035   40.5632 C.3     1  ZINC001296589646   -0.1200
     12 C12         1.1754    0.9536   40.8053 C.3     1  ZINC001296589646   -0.1000
     13 H13         0.7182    1.7298   40.1917 H       1  ZINC001296589646    0.0800
     14 C14         2.6695    0.8437   40.4949 C.3     1  ZINC001296589646   -0.1400
     15 C15         0.9588    1.2568   42.2996 C.3     1  ZINC001296589646    0.0500
     16 N16        -0.3191    1.1593   45.0296 N.pl3   1  ZINC001296589646   -0.4600
     17 C17         1.0303    1.5003   45.4870 C.3     1  ZINC001296589646    0.1000
     18 C18         1.8457    0.2187   45.6701 C.3     1  ZINC001296589646   -0.1300
     19 C19         3.2497    0.5738   46.1637 C.3     1  ZINC001296589646   -0.0500
     20 H20         3.5669    1.5134   45.7116 H       1  ZINC001296589646    0.0800
     21 C21         3.2331    0.7204   47.6865 C.3     1  ZINC001296589646   -0.1500
     22 C22         4.2105   -0.5202   45.7747 C.ar    1  ZINC001296589646   -0.0800
     23 C23         4.2996   -1.6668   46.5417 C.ar    1  ZINC001296589646   -0.1100
     24 C24         5.1809   -2.6703   46.1849 C.ar    1  ZINC001296589646   -0.1200
     25 C25         5.9728   -2.5273   45.0610 C.ar    1  ZINC001296589646   -0.1200
     26 C26         5.8830   -1.3811   44.2935 C.ar    1  ZINC001296589646   -0.1200
     27 C27         4.9986   -0.3795   44.6478 C.ar    1  ZINC001296589646   -0.1200
     28 C28        -3.1523    2.1677   47.4221 C.3     1  ZINC001296589646   -0.1400
     29 C29        -3.0587    2.1501   48.9687 C.3     1  ZINC001296589646    0.0600
     30 O30        -1.9958    1.2320   49.2696 O.3     1  ZINC001296589646   -0.3700
     31 C31        -1.0986    1.1405   48.1568 C.3     1  ZINC001296589646    0.0400
     32 H32        -0.7907    6.0180   47.0140 H       1  ZINC001296589646    0.0600
     33 H33         0.3963    5.2392   45.9402 H       1  ZINC001296589646    0.0700
     34 H34        -0.9668    6.1507   45.2477 H       1  ZINC001296589646    0.0700
     35 H35        -2.5402    4.4774   46.2655 H       1  ZINC001296589646    0.0500
     36 H36        -1.4346    3.7537   45.0730 H       1  ZINC001296589646    0.0600
     37 H37        -0.7937   -1.5222   41.9481 H       1  ZINC001296589646    0.0900
     38 H38        -1.4318    0.0953   41.5082 H       1  ZINC001296589646    0.0600
     39 H39         1.1932   -1.2223   40.6164 H       1  ZINC001296589646    0.0800
     40 H40        -0.0421   -0.4047   39.6040 H       1  ZINC001296589646    0.0800
     41 H41         2.8042    0.5805   39.4457 H       1  ZINC001296589646    0.0600
     42 H42         3.1534    1.7997   40.6947 H       1  ZINC001296589646    0.0600
     43 H43         3.1154    0.0724   41.1230 H       1  ZINC001296589646    0.0600
     44 H44         0.3828    2.1753   42.4124 H       1  ZINC001296589646    0.0800
     45 H45         1.9211    1.3547   42.8020 H       1  ZINC001296589646    0.0900
     46 H46         1.5149    2.1367   44.7467 H       1  ZINC001296589646    0.1100
     47 H47         0.9685    2.0305   46.4374 H       1  ZINC001296589646    0.1000
     48 H48         1.3548   -0.4229   46.4019 H       1  ZINC001296589646    0.0800
     49 H49         1.9173   -0.3056   44.7172 H       1  ZINC001296589646    0.0700
     50 H50         4.2334    0.9732   48.0381 H       1  ZINC001296589646    0.0600
     51 H51         2.5383    1.5116   47.9678 H       1  ZINC001296589646    0.0600
     52 H52         2.9159   -0.2194   48.1386 H       1  ZINC001296589646    0.0600
     53 H53         3.6808   -1.7785   47.4199 H       1  ZINC001296589646    0.1200
     54 H54         5.2509   -3.5658   46.7846 H       1  ZINC001296589646    0.1200
     55 H55         6.6617   -3.3110   44.7826 H       1  ZINC001296589646    0.1200
     56 H56         6.5020   -1.2693   43.4156 H       1  ZINC001296589646    0.1200
     57 H57         4.9286    0.5160   44.0482 H       1  ZINC001296589646    0.1200
     58 H58        -3.5741    3.1073   47.0648 H       1  ZINC001296589646    0.1000
     59 H59        -3.7251    1.3168   47.0535 H       1  ZINC001296589646    0.1000
     60 H60        -2.8175    3.1445   49.3445 H       1  ZINC001296589646    0.0700
     61 H61        -3.9958    1.7987   49.4004 H       1  ZINC001296589646    0.0900
     62 H62        -1.0452    0.1089   47.8087 H       1  ZINC001296589646    0.1000
     63 H63        -0.1072    1.4841   48.4519 H       1  ZINC001296589646    0.0800
@<TRIPOS>BOND
     1     1     2    1
     2     1    32    1
     3     1    33    1
     4     1    34    1
     5     2     3    1
     6     2    35    1
     7     2    36    1
     8     3     4    1
     9     4    31    1
    10     4     5    1
    11     4    28    1
    12     5    16    1
    13     5     6    2
    14     6     7    1
    15     7     8    2
    16     8     9    1
    17     8    16    1
    18     9    15    1
    19     9    10    1
    20    10    11    1
    21    10    37    1
    22    10    38    1
    23    11    12    1
    24    11    39    1
    25    11    40    1
    26    12    13    1
    27    12    14    1
    28    12    15    1
    29    14    41    1
    30    14    42    1
    31    14    43    1
    32    15    44    1
    33    15    45    1
    34    16    17    1
    35    17    18    1
    36    17    46    1
    37    17    47    1
    38    18    19    1
    39    18    48    1
    40    18    49    1
    41    19    20    1
    42    19    21    1
    43    19    22    1
    44    21    50    1
    45    21    51    1
    46    21    52    1
    47    22    27   ar
    48    22    23   ar
    49    23    24   ar
    50    23    53    1
    51    24    25   ar
    52    24    54    1
    53    25    26   ar
    54    25    55    1
    55    26    27   ar
    56    26    56    1
    57    27    57    1
    58    28    29    1
    59    28    58    1
    60    28    59    1
    61    29    30    1
    62    29    60    1
    63    29    61    1
    64    30    31    1
    65    31    62    1
    66    31    63    1
@<TRIPOS>SUBSTRUCTURE
     1 ZINC001296589646        1 TEMP              0 ****  ****    0 ROOT


##########                                Name:    ZINC001078748831
##########                DOCK_Rotatable_Bonds:                   6
##########                         Heavy_Atoms:                  23
##########                    Molecular_Weight:             333.417
##########                DOCK_Rotatable_Bonds:                   6
##########                       Formal_Charge:           0.0299999
##########                     HBond_Acceptors:                   9
##########                        HBond_Donors:                   2
##########                         Heavy_Atoms:                  23
##########                          Grid_Score:          -32.221996
##########                     Grid_vdw_energy:          -32.270515
##########                      Grid_es_energy:            0.048518
##########           Internal_energy_repulsive:            5.142255

@<TRIPOS>MOLECULE
ZINC001078748831
 42 45 1 0 0
SMALL
USER_CHARGES


@<TRIPOS>ATOM
      1 C1         -6.1121    0.9986   50.6625 C.3     1  ZINC001078748831    0.1000
      2 N2         -7.2595    0.2281   51.1485 N.pl3   1  ZINC001078748831   -0.1400
      3 N3         -7.3666   -1.0496   51.0613 N.2     1  ZINC001078748831   -0.2900
      4 C4         -8.5082   -1.4207   51.5891 C.2     1  ZINC001078748831    0.0400
      5 C5         -9.1301   -0.2352   52.0293 C.2     1  ZINC001078748831   -0.0500
      6 C6        -10.4424   -0.1085   52.6975 C.2     1  ZINC001078748831    0.6200
      7 O7        -11.1503    0.8530   52.4692 O.2     1  ZINC001078748831   -0.5200
      8 N8        -10.8541   -1.0590   53.5597 N.am    1  ZINC001078748831   -0.7000
      9 C9        -12.1542   -0.9326   54.2233 C.3     1  ZINC001078748831    0.1500
     10 H10       -12.9281   -0.5346   53.5670 H       1  ZINC001078748831    0.1100
     11 C11       -12.0836   -0.2308   55.5917 C.3     1  ZINC001078748831   -0.1800
     12 C12       -11.8622   -1.6224   56.2121 C.3     1  ZINC001078748831    0.0800
     13 H13       -10.8130   -1.9103   56.2774 H       1  ZINC001078748831    0.1000
     14 N14       -12.5908   -1.8294   57.4707 N.3     1  ZINC001078748831   -0.6700
     15 C15       -11.7424   -1.5153   58.6281 C.3     1  ZINC001078748831    0.1400
     16 C16       -10.7882   -2.6552   58.8757 C.2     1  ZINC001078748831    0.0600
     17 N17        -9.5474   -2.4978   59.2451 N.2     1  ZINC001078748831   -0.5700
     18 S18        -8.8962   -3.9072   59.3969 S.3     1  ZINC001078748831    0.6800
     19 N19       -10.1291   -4.7810   59.0096 N.2     1  ZINC001078748831   -0.5700
     20 C20       -11.1290   -3.9871   58.7433 C.2     1  ZINC001078748831    0.0500
     21 C21       -12.5802   -2.1892   54.9831 C.3     1  ZINC001078748831   -0.1000
     22 C22       -14.0473   -2.6147   55.0507 C.3     1  ZINC001078748831   -0.1000
     23 C23       -13.7102   -3.6409   53.9537 C.3     1  ZINC001078748831   -0.1400
     24 C24       -12.2543   -3.5852   54.4510 C.3     1  ZINC001078748831   -0.1200
     25 N25        -8.2891    0.7410   51.7233 N.2     1  ZINC001078748831   -0.2500
     26 H26        -5.3697    1.0844   51.4560 H       1  ZINC001078748831    0.1000
     27 H27        -5.6704    0.4908   49.8051 H       1  ZINC001078748831    0.1100
     28 H28        -6.4425    1.9937   50.3649 H       1  ZINC001078748831    0.1100
     29 H29        -8.8926   -2.4267   51.6693 H       1  ZINC001078748831    0.2100
     30 H30       -10.2898   -1.8268   53.7410 H       1  ZINC001078748831    0.4100
     31 H31       -11.2268    0.4348   55.6969 H       1  ZINC001078748831    0.0700
     32 H32       -13.0220    0.2358   55.8913 H       1  ZINC001078748831    0.1000
     33 H33       -13.4422   -1.2881   57.4890 H       1  ZINC001078748831    0.3500
     34 H34       -11.1770   -0.6052   58.4278 H       1  ZINC001078748831    0.1000
     35 H35       -12.3684   -1.3678   59.5082 H       1  ZINC001078748831    0.0600
     36 H36       -12.1089   -4.3315   58.4472 H       1  ZINC001078748831    0.2000
     37 H37       -14.3282   -3.0672   56.0017 H       1  ZINC001078748831    0.1000
     38 H38       -14.7427   -1.8405   54.7267 H       1  ZINC001078748831    0.0700
     39 H39       -14.1851   -4.6106   54.1029 H       1  ZINC001078748831    0.0700
     40 H40       -13.8404   -3.2565   52.9421 H       1  ZINC001078748831    0.0800
     41 H41       -11.5174   -3.5862   53.6479 H       1  ZINC001078748831    0.0700
     42 H42       -12.0311   -4.3106   55.2335 H       1  ZINC001078748831    0.0900
@<TRIPOS>BOND
     1     1     2    1
     2     1    26    1
     3     1    27    1
     4     1    28    1
     5     2    25    1
     6     2     3    1
     7     3     4    2
     8     4     5    1
     9     4    29    1
    10     5     6    1
    11     5    25    2
    12     6     7    2
    13     6     8   am
    14     8     9    1
    15     8    30    1
    16     9    10    1
    17     9    21    1
    18     9    11    1
    19    11    12    1
    20    11    31    1
    21    11    32    1
    22    12    13    1
    23    12    14    1
    24    12    21    1
    25    14    15    1
    26    14    33    1
    27    15    16    1
    28    15    34    1
    29    15    35    1
    30    16    20    1
    31    16    17    2
    32    17    18    1
    33    18    19    1
    34    19    20    2
    35    20    36    1
    36    21    24    1
    37    21    22    1
    38    22    23    1
    39    22    37    1
    40    22    38    1
    41    23    24    1
    42    23    39    1
    43    23    40    1
    44    24    41    1
    45    24    42    1
@<TRIPOS>SUBSTRUCTURE
     1 ZINC001078748831        1 TEMP              0 ****  ****    0 ROOT


##########                                Name:    ZINC000498646479
##########                DOCK_Rotatable_Bonds:                   7
##########                         Heavy_Atoms:                  29
##########                    Molecular_Weight:              407.58
##########                DOCK_Rotatable_Bonds:                   7
##########                       Formal_Charge:          -0.0199997
##########                     HBond_Acceptors:                   5
##########                        HBond_Donors:                   0
##########                         Heavy_Atoms:                  29
##########                          Grid_Score:          -32.220989
##########                     Grid_vdw_energy:          -30.990431
##########                      Grid_es_energy:           -1.230560
##########           Internal_energy_repulsive:           28.072758

@<TRIPOS>MOLECULE
ZINC000498646479
 58 61 1 0 0
SMALL
USER_CHARGES


@<TRIPOS>ATOM
      1 C1         -3.6596    2.0182   49.9361 C.3     1  ZINC000498646479   -0.1500
      2 C2         -5.0315    1.5008   50.3732 C.3     1  ZINC000498646479   -0.0600
      3 C3         -5.4980    2.2726   51.5807 C.2     1  ZINC000498646479   -0.1700
      4 C4         -4.7024    2.7786   52.5242 C.2     1  ZINC000498646479   -0.1400
      5 C5         -5.3582    3.4511   53.5410 C.2     1  ZINC000498646479   -0.1300
      6 C6         -6.6863    3.4911   53.4231 C.2     1  ZINC000498646479   -0.1900
      7 C7         -7.6248    4.1604   54.3938 C.3     1  ZINC000498646479    0.1300
      8 N8         -7.9201    3.2421   55.5017 N.3     1  ZINC000498646479   -0.5300
      9 C9         -8.6098    2.0385   55.0182 C.3     1  ZINC000498646479    0.0400
     10 C10        -8.7373    1.0311   56.1658 C.3     1  ZINC000498646479    0.1200
     11 N11        -9.3811    1.7010   57.3061 N.am    1  ZINC000498646479   -0.6100
     12 C12       -10.4495    1.1523   57.9175 C.2     1  ZINC000498646479    0.5200
     13 O13       -10.8926    0.0924   57.5287 O.2     1  ZINC000498646479   -0.5400
     14 C14       -11.0936    1.8559   59.0842 C.3     1  ZINC000498646479   -0.1000
     15 H15       -10.3221    2.3122   59.7043 H       1  ZINC000498646479    0.0900
     16 C16       -12.0397    2.9411   58.5662 C.3     1  ZINC000498646479   -0.1500
     17 C17       -11.8846    0.8445   59.9162 C.3     1  ZINC000498646479   -0.0600
     18 C18       -10.9462    0.1089   60.8378 C.ar    1  ZINC000498646479   -0.1200
     19 C19       -10.5698    0.6668   62.0729 C.ar    1  ZINC000498646479   -0.0200
     20 C20       -11.0405    1.9155   62.5040 C.ar    1  ZINC000498646479   -0.1200
     21 C21       -10.6398    2.4026   63.7113 C.ar    1  ZINC000498646479   -0.1000
     22 C22        -9.7687    1.6796   64.5244 C.ar    1  ZINC000498646479   -0.1200
     23 C23        -9.2918    0.4641   64.1379 C.ar    1  ZINC000498646479   -0.0900
     24 C24        -9.6830   -0.0707   62.9003 C.ar    1  ZINC000498646479   -0.1100
     25 C25        -9.2248   -1.3186   62.4489 C.ar    1  ZINC000498646479    0.1400
     26 N26        -9.6189   -1.7777   61.2840 N.ar    1  ZINC000498646479   -0.4800
     27 C27       -10.4500   -1.1121   60.4942 C.ar    1  ZINC000498646479    0.0800
     28 C28        -8.8276    2.9853   57.7617 C.3     1  ZINC000498646479    0.1100
     29 C29        -8.6965    3.9156   56.5512 C.3     1  ZINC000498646479    0.0400
     30 S30        -7.1740    2.6503   51.9572 S.3     1  ZINC000498646479    0.1300
     31 H31        -3.3221    1.4601   49.0627 H       1  ZINC000498646479    0.0600
     32 H32        -3.7336    3.0763   49.6847 H       1  ZINC000498646479    0.0600
     33 H33        -2.9457    1.8870   50.7492 H       1  ZINC000498646479    0.0600
     34 H34        -5.7453    1.6320   49.5601 H       1  ZINC000498646479    0.0800
     35 H35        -4.9575    0.4428   50.6246 H       1  ZINC000498646479    0.0700
     36 H36        -3.6282    2.6715   52.4972 H       1  ZINC000498646479    0.1400
     37 H37        -4.8343    3.9084   54.3673 H       1  ZINC000498646479    0.1300
     38 H38        -7.1583    5.0643   54.7857 H       1  ZINC000498646479    0.0900
     39 H39        -8.5510    4.4221   53.8821 H       1  ZINC000498646479    0.0500
     40 H40        -9.6029    2.3079   54.6588 H       1  ZINC000498646479    0.0400
     41 H41        -8.0367    1.5928   54.2051 H       1  ZINC000498646479    0.1000
     42 H42        -9.3471    0.1864   55.8455 H       1  ZINC000498646479    0.1000
     43 H43        -7.7471    0.6816   56.4580 H       1  ZINC000498646479    0.0800
     44 H44       -12.4413    3.5052   59.4081 H       1  ZINC000498646479    0.0700
     45 H45       -11.4934    3.6141   57.9053 H       1  ZINC000498646479    0.0600
     46 H46       -12.8584    2.4771   58.0162 H       1  ZINC000498646479    0.0700
     47 H47       -12.6368    1.3682   60.5061 H       1  ZINC000498646479    0.0900
     48 H48       -12.3746    0.1321   59.2525 H       1  ZINC000498646479    0.0800
     49 H49       -11.7154    2.4866   61.8836 H       1  ZINC000498646479    0.1400
     50 H50       -11.0022    3.3642   64.0435 H       1  ZINC000498646479    0.1300
     51 H51        -9.4668    2.0902   65.4765 H       1  ZINC000498646479    0.1300
     52 H52        -8.6174   -0.0844   64.7787 H       1  ZINC000498646479    0.1300
     53 H53        -8.5489   -1.8997   63.0589 H       1  ZINC000498646479    0.1600
     54 H54       -10.7352   -1.5467   59.5474 H       1  ZINC000498646479    0.1500
     55 H55        -9.4971    3.4324   58.4964 H       1  ZINC000498646479    0.0900
     56 H56        -7.8461    2.8235   58.2072 H       1  ZINC000498646479    0.0800
     57 H57        -8.1863    4.8314   56.8499 H       1  ZINC000498646479    0.0900
     58 H58        -9.6884    4.1590   56.1704 H       1  ZINC000498646479    0.0400
@<TRIPOS>BOND
     1     1     2    1
     2     1    31    1
     3     1    32    1
     4     1    33    1
     5     2     3    1
     6     2    34    1
     7     2    35    1
     8     3    30    1
     9     3     4    2
    10     4     5    1
    11     4    36    1
    12     5     6    2
    13     5    37    1
    14     6     7    1
    15     6    30    1
    16     7     8    1
    17     7    38    1
    18     7    39    1
    19     8    29    1
    20     8     9    1
    21     9    10    1
    22     9    40    1
    23     9    41    1
    24    10    11    1
    25    10    42    1
    26    10    43    1
    27    11    12   am
    28    11    28    1
    29    12    13    2
    30    12    14    1
    31    14    15    1
    32    14    16    1
    33    14    17    1
    34    16    44    1
    35    16    45    1
    36    16    46    1
    37    17    18    1
    38    17    47    1
    39    17    48    1
    40    18    27   ar
    41    18    19   ar
    42    19    24   ar
    43    19    20   ar
    44    20    21   ar
    45    20    49    1
    46    21    22   ar
    47    21    50    1
    48    22    23   ar
    49    22    51    1
    50    23    24   ar
    51    23    52    1
    52    24    25   ar
    53    25    26   ar
    54    25    53    1
    55    26    27   ar
    56    27    54    1
    57    28    29    1
    58    28    55    1
    59    28    56    1
    60    29    57    1
    61    29    58    1
@<TRIPOS>SUBSTRUCTURE
     1 ZINC000498646479        1 TEMP              0 ****  ****    0 ROOT


##########                                Name:    ZINC001067560454
##########                DOCK_Rotatable_Bonds:                   4
##########                         Heavy_Atoms:                  25
##########                    Molecular_Weight:             342.444
##########                DOCK_Rotatable_Bonds:                   4
##########                       Formal_Charge:          0.00999971
##########                     HBond_Acceptors:                   7
##########                        HBond_Donors:                   1
##########                         Heavy_Atoms:                  25
##########                          Grid_Score:          -32.208282
##########                     Grid_vdw_energy:          -29.853451
##########                      Grid_es_energy:           -2.354833
##########           Internal_energy_repulsive:           12.543696

@<TRIPOS>MOLECULE
ZINC001067560454
 51 54 1 0 0
SMALL
USER_CHARGES


@<TRIPOS>ATOM
      1 C1        -11.6710   -2.9861   52.2267 C.3     1  ZINC001067560454   -0.1500
      2 C2        -12.4834   -2.8461   53.5157 C.3     1  ZINC001067560454    0.1000
      3 H3        -13.0667   -3.7526   53.6776 H       1  ZINC001067560454    0.0600
      4 C4        -11.5336   -2.6330   54.6965 C.3     1  ZINC001067560454   -0.1200
      5 C5        -12.3516   -2.4735   55.9809 C.3     1  ZINC001067560454    0.1400
      6 H6        -12.9152   -3.3873   56.1698 H       1  ZINC001067560454    0.0900
      7 N7        -11.4504   -2.2128   57.1062 N.am    1  ZINC001067560454   -0.7200
      8 C8        -11.2913   -3.1403   58.0710 C.2     1  ZINC001067560454    0.5400
      9 O9        -11.8951   -4.1902   58.0084 O.2     1  ZINC001067560454   -0.5300
     10 C10       -10.3629   -2.8729   59.2276 C.3     1  ZINC001067560454   -0.1100
     11 C11        -9.4644   -4.0668   59.5564 C.3     1  ZINC001067560454   -0.1300
     12 C12        -9.6030   -1.5409   59.1123 C.3     1  ZINC001067560454   -0.1200
     13 C13       -10.7889   -0.8913   59.8448 C.3     1  ZINC001067560454   -0.1400
     14 C14       -11.0668   -2.2745   60.4569 C.3     1  ZINC001067560454   -0.1200
     15 C15       -13.3206   -1.2994   55.8170 C.3     1  ZINC001067560454   -0.1200
     16 C16       -14.2187   -1.5510   54.6037 C.3     1  ZINC001067560454    0.0600
     17 N17       -13.3889   -1.6957   53.4008 N.3     1  ZINC001067560454   -0.4900
     18 C18       -14.1741   -1.7944   52.2655 C.ar    1  ZINC001067560454    0.4400
     19 C19       -14.0409   -0.8691   51.2166 C.ar    1  ZINC001067560454   -0.0800
     20 N20       -13.2607    0.2164   50.9972 N.2     1  ZINC001067560454   -0.4700
     21 C21       -13.5470    0.7279   49.8352 C.2     1  ZINC001067560454    0.2700
     22 N22       -14.5315    0.0000   49.2358 N.pl3   1  ZINC001067560454   -0.4800
     23 C23       -15.1236    0.2599   47.9212 C.3     1  ZINC001067560454    0.0800
     24 C24       -14.8657   -1.0211   50.0890 C.ar    1  ZINC001067560454    0.2800
     25 N25       -15.7344   -2.0261   50.0551 N.ar    1  ZINC001067560454   -0.5200
     26 C26       -15.8242   -2.8697   51.0618 C.ar    1  ZINC001067560454    0.3300
     27 N27       -15.0680   -2.7700   52.1396 N.ar    1  ZINC001067560454   -0.5100
     28 H28       -11.0877   -2.0796   52.0646 H       1  ZINC001067560454    0.0700
     29 H29       -10.9992   -3.8401   52.3117 H       1  ZINC001067560454    0.0700
     30 H30       -12.3474   -3.1382   51.3856 H       1  ZINC001067560454    0.0500
     31 H31       -10.8718   -3.4941   54.7911 H       1  ZINC001067560454    0.0800
     32 H32       -10.9404   -1.7341   54.5289 H       1  ZINC001067560454    0.0800
     33 H33       -10.9684   -1.3726   57.1568 H       1  ZINC001067560454    0.4000
     34 H34        -8.9804   -4.4191   58.6456 H       1  ZINC001067560454    0.0600
     35 H35        -8.7052   -3.7624   60.2770 H       1  ZINC001067560454    0.0700
     36 H36       -10.0674   -4.8692   59.9812 H       1  ZINC001067560454    0.0600
     37 H37        -8.6732   -1.5181   59.6806 H       1  ZINC001067560454    0.0900
     38 H38        -9.4815   -1.1950   58.0858 H       1  ZINC001067560454    0.0700
     39 H39       -10.4916   -0.1413   60.5777 H       1  ZINC001067560454    0.0700
     40 H40       -11.5768   -0.5430   59.1771 H       1  ZINC001067560454    0.0800
     41 H41       -12.1270   -2.5208   60.5160 H       1  ZINC001067560454    0.0800
     42 H42       -10.5371   -2.4523   61.3929 H       1  ZINC001067560454    0.0900
     43 H43       -13.9357   -1.2074   56.7122 H       1  ZINC001067560454    0.0800
     44 H44       -12.7556   -0.3793   55.6669 H       1  ZINC001067560454    0.0800
     45 H45       -14.7936   -2.4637   54.7605 H       1  ZINC001067560454    0.0700
     46 H46       -14.9003   -0.7101   54.4756 H       1  ZINC001067560454    0.0800
     47 H47       -13.0747    1.6005   49.4089 H       1  ZINC001067560454    0.2300
     48 H48       -14.5599   -0.2746   47.1566 H       1  ZINC001067560454    0.0800
     49 H49       -16.1587   -0.0817   47.9149 H       1  ZINC001067560454    0.0900
     50 H50       -15.0928    1.3296   47.7139 H       1  ZINC001067560454    0.0900
     51 H51       -16.5408   -3.6755   51.0024 H       1  ZINC001067560454    0.2100
@<TRIPOS>BOND
     1     1     2    1
     2     1    28    1
     3     1    29    1
     4     1    30    1
     5     2     3    1
     6     2    17    1
     7     2     4    1
     8     4     5    1
     9     4    31    1
    10     4    32    1
    11     5     6    1
    12     5     7    1
    13     5    15    1
    14     7     8   am
    15     7    33    1
    16     8     9    2
    17     8    10    1
    18    10    14    1
    19    10    11    1
    20    10    12    1
    21    11    34    1
    22    11    35    1
    23    11    36    1
    24    12    13    1
    25    12    37    1
    26    12    38    1
    27    13    14    1
    28    13    39    1
    29    13    40    1
    30    14    41    1
    31    14    42    1
    32    15    16    1
    33    15    43    1
    34    15    44    1
    35    16    17    1
    36    16    45    1
    37    16    46    1
    38    17    18    1
    39    18    27   ar
    40    18    19   ar
    41    19    24   ar
    42    19    20    1
    43    20    21    2
    44    21    22    1
    45    21    47    1
    46    22    23    1
    47    22    24    1
    48    23    48    1
    49    23    49    1
    50    23    50    1
    51    24    25   ar
    52    25    26   ar
    53    26    27   ar
    54    26    51    1
@<TRIPOS>SUBSTRUCTURE
     1 ZINC001067560454        1 TEMP              0 ****  ****    0 ROOT


##########                                Name:    ZINC000979274057
##########                DOCK_Rotatable_Bonds:                   6
##########                         Heavy_Atoms:                  24
##########                    Molecular_Weight:              330.39
##########                DOCK_Rotatable_Bonds:                   6
##########                       Formal_Charge:          0.00999946
##########                     HBond_Acceptors:                   8
##########                        HBond_Donors:                   1
##########                         Heavy_Atoms:                  24
##########                          Grid_Score:          -32.193577
##########                     Grid_vdw_energy:          -30.382751
##########                      Grid_es_energy:           -1.810825
##########           Internal_energy_repulsive:           13.964748

@<TRIPOS>MOLECULE
ZINC000979274057
 46 48 1 0 0
SMALL
USER_CHARGES


@<TRIPOS>ATOM
      1 C1        -14.5944   -5.8953   56.8243 C.3     1  ZINC000979274057   -0.1400
      2 C2        -14.8263   -4.4097   56.5418 C.3     1  ZINC000979274057    0.1000
      3 H3        -15.8730   -4.1646   56.7226 H       1  ZINC000979274057    0.0600
      4 N4        -14.4902   -4.1191   55.1416 N.3     1  ZINC000979274057   -0.6700
      5 C5        -13.1795   -4.6803   54.7875 C.3     1  ZINC000979274057    0.1300
      6 C6        -12.5769   -3.8782   53.6630 C.ar    1  ZINC000979274057    0.3200
      7 N7        -11.2651   -3.8160   53.5509 N.ar    1  ZINC000979274057   -0.5200
      8 C8        -10.7002   -3.1215   52.5764 C.ar    1  ZINC000979274057    0.1500
      9 C9        -11.5074   -2.4552   51.6678 C.ar    1  ZINC000979274057   -0.2300
     10 C10       -12.8823   -2.5443   51.8185 C.ar    1  ZINC000979274057    0.1500
     11 N11       -13.3755   -3.2621   52.8147 N.ar    1  ZINC000979274057   -0.5000
     12 C12       -13.9394   -3.5707   57.4639 C.3     1  ZINC000979274057    0.0800
     13 H13       -13.0665   -4.1531   57.7584 H       1  ZINC000979274057    0.0700
     14 C14       -14.7331   -3.1707   58.7130 C.3     1  ZINC000979274057    0.0800
     15 N15       -13.9267   -2.2154   59.4890 N.am    1  ZINC000979274057   -0.6000
     16 C16       -13.7127   -2.3981   60.8071 C.2     1  ZINC000979274057    0.6100
     17 O17       -14.1893   -3.3637   61.3724 O.2     1  ZINC000979274057   -0.5400
     18 C18       -12.9016   -1.4282   61.5632 C.2     1  ZINC000979274057   -0.0600
     19 C19       -11.5403   -1.4089   61.6493 C.2     1  ZINC000979274057    0.0400
     20 N20       -11.2113   -0.3588   62.4378 N.pl3   1  ZINC000979274057   -0.4600
     21 C21        -9.8548    0.0507   62.8097 C.3     1  ZINC000979274057    0.0700
     22 C22       -12.3647    0.2475   62.8221 C.2     1  ZINC000979274057    0.1900
     23 N23       -13.3725   -0.3872   62.2965 N.2     1  ZINC000979274057   -0.4600
     24 C24       -13.3604   -1.0548   58.7836 C.3     1  ZINC000979274057    0.0500
     25 C25       -12.6337   -1.5579   57.5310 C.3     1  ZINC000979274057    0.0500
     26 O26       -13.5166   -2.3909   56.7760 O.3     1  ZINC000979274057   -0.3600
     27 H27       -15.2263   -6.4931   56.1673 H       1  ZINC000979274057    0.0600
     28 H28       -13.5478   -6.1405   56.6435 H       1  ZINC000979274057    0.0700
     29 H29       -14.8438   -6.1110   57.8632 H       1  ZINC000979274057    0.0600
     30 H30       -15.2086   -4.4580   54.5195 H       1  ZINC000979274057    0.3500
     31 H31       -12.5211   -4.6410   55.6553 H       1  ZINC000979274057    0.1000
     32 H32       -13.3014   -5.7160   54.4705 H       1  ZINC000979274057    0.0600
     33 H33        -9.6247   -3.0743   52.4903 H       1  ZINC000979274057    0.1700
     34 H34       -11.0754   -1.8801   50.8622 H       1  ZINC000979274057    0.1500
     35 H35       -13.5422   -2.0379   51.1297 H       1  ZINC000979274057    0.1700
     36 H36       -15.6723   -2.7031   58.4171 H       1  ZINC000979274057    0.0700
     37 H37       -14.9370   -4.0548   59.3171 H       1  ZINC000979274057    0.1000
     38 H38       -10.8560   -2.0993   61.1788 H       1  ZINC000979274057    0.1900
     39 H39        -9.4749    0.7601   62.0744 H       1  ZINC000979274057    0.0800
     40 H40        -9.8740    0.5215   63.7926 H       1  ZINC000979274057    0.0900
     41 H41        -9.2060   -0.8247   62.8388 H       1  ZINC000979274057    0.0900
     42 H42       -12.4342    1.1179   63.4576 H       1  ZINC000979274057    0.2100
     43 H43       -14.1613   -0.3741   58.4947 H       1  ZINC000979274057    0.0700
     44 H44       -12.6554   -0.5377   59.4343 H       1  ZINC000979274057    0.1500
     45 H45       -12.3260   -0.7075   56.9224 H       1  ZINC000979274057    0.1100
     46 H46       -11.7554   -2.1322   57.8258 H       1  ZINC000979274057    0.0500
@<TRIPOS>BOND
     1     1     2    1
     2     1    27    1
     3     1    28    1
     4     1    29    1
     5     2     3    1
     6     2     4    1
     7     2    12    1
     8     4     5    1
     9     4    30    1
    10     5     6    1
    11     5    31    1
    12     5    32    1
    13     6    11   ar
    14     6     7   ar
    15     7     8   ar
    16     8     9   ar
    17     8    33    1
    18     9    10   ar
    19     9    34    1
    20    10    11   ar
    21    10    35    1
    22    12    13    1
    23    12    26    1
    24    12    14    1
    25    14    15    1
    26    14    36    1
    27    14    37    1
    28    15    16   am
    29    15    24    1
    30    16    17    2
    31    16    18    1
    32    18    23    1
    33    18    19    2
    34    19    20    1
    35    19    38    1
    36    20    21    1
    37    20    22    1
    38    21    39    1
    39    21    40    1
    40    21    41    1
    41    22    23    2
    42    22    42    1
    43    24    25    1
    44    24    43    1
    45    24    44    1
    46    25    26    1
    47    25    45    1
    48    25    46    1
@<TRIPOS>SUBSTRUCTURE
     1 ZINC000979274057        1 TEMP              0 ****  ****    0 ROOT


##########                                Name:    ZINC000541568816
##########                DOCK_Rotatable_Bonds:                   8
##########                         Heavy_Atoms:                  25
##########                    Molecular_Weight:             411.339
##########                DOCK_Rotatable_Bonds:                   8
##########                       Formal_Charge:          -0.0100007
##########                     HBond_Acceptors:                   5
##########                        HBond_Donors:                   1
##########                         Heavy_Atoms:                  25
##########                          Grid_Score:          -32.153694
##########                     Grid_vdw_energy:          -31.556131
##########                      Grid_es_energy:           -0.597563
##########           Internal_energy_repulsive:           22.925119

@<TRIPOS>MOLECULE
ZINC000541568816
 52 54 1 0 0
SMALL
USER_CHARGES


@<TRIPOS>ATOM
      1 C1        -15.3399   -3.6943   58.9631 C.3     1  ZINC000541568816   -0.1500
      2 C2        -14.8352   -3.0323   60.2469 C.3     1  ZINC000541568816    0.0600
      3 O3        -13.4064   -3.0077   60.2401 O.3     1  ZINC000541568816   -0.3700
      4 C4        -12.8444   -2.1728   59.2256 C.3     1  ZINC000541568816    0.0700
      5 H5        -13.4998   -1.3487   58.9440 H       1  ZINC000541568816    0.0900
      6 C6        -12.2842   -2.9539   58.0238 C.3     1  ZINC000541568816   -0.1700
      7 C7        -11.1066   -1.9633   58.0259 C.3     1  ZINC000541568816    0.1500
      8 H8        -10.1408   -2.4320   57.8371 H       1  ZINC000541568816    0.1100
      9 N9        -11.3355   -0.7769   57.1974 N.am    1  ZINC000541568816   -0.7200
     10 C10       -11.4305   -0.8982   55.8584 C.2     1  ZINC000541568816    0.7100
     11 O11       -11.3277   -1.9924   55.3383 O.2     1  ZINC000541568816   -0.5800
     12 N12       -11.6394    0.1935   55.0961 N.am    1  ZINC000541568816   -0.6300
     13 C13       -11.7650    1.5116   55.7229 C.3     1  ZINC000541568816    0.1000
     14 C14       -13.2171    1.7375   56.1489 C.3     1  ZINC000541568816   -0.1800
     15 C15       -11.7409    0.0619   53.6405 C.3     1  ZINC000541568816    0.1700
     16 C16       -10.3584   -0.0077   53.0448 C.ar    1  ZINC000541568816   -0.0700
     17 C17        -9.4803    1.0463   53.2113 C.ar    1  ZINC000541568816   -0.1000
     18 C18        -8.2118    0.9825   52.6648 C.ar    1  ZINC000541568816   -0.1000
     19 C19        -7.8213   -0.1356   51.9522 C.ar    1  ZINC000541568816   -0.1200
     20 C20        -8.6990   -1.1904   51.7852 C.ar    1  ZINC000541568816   -0.0900
     21 C21        -9.9661   -1.1292   52.3361 C.ar    1  ZINC000541568816   -0.0900
     22 Br22      -11.1673   -2.5719   52.1080 Br      1  ZINC000541568816   -0.0500
     23 C23       -11.4033   -1.7407   59.5142 C.3     1  ZINC000541568816    0.0800
     24 C24       -10.6344   -2.6725   60.4669 C.3     1  ZINC000541568816   -0.1200
     25 C25        -9.6259   -1.6952   61.1330 C.3     1  ZINC000541568816   -0.1600
     26 C26       -10.4650   -0.3929   61.1839 C.3     1  ZINC000541568816    0.0500
     27 O27       -11.2449   -0.4004   59.9753 O.3     1  ZINC000541568816   -0.3600
     28 H28       -14.9905   -3.1272   58.1003 H       1  ZINC000541568816    0.0600
     29 H29       -14.9592   -4.7140   58.9061 H       1  ZINC000541568816    0.0600
     30 H30       -16.4297   -3.7131   58.9682 H       1  ZINC000541568816    0.0700
     31 H31       -15.2160   -2.0126   60.3038 H       1  ZINC000541568816    0.0500
     32 H32       -15.1847   -3.5994   61.1097 H       1  ZINC000541568816    0.0500
     33 H33       -11.9944   -3.9767   58.2649 H       1  ZINC000541568816    0.1000
     34 H34       -12.9076   -2.8889   57.1321 H       1  ZINC000541568816    0.0800
     35 H35       -11.4186    0.0958   57.6124 H       1  ZINC000541568816    0.4000
     36 H36       -11.1177    1.5606   56.5985 H       1  ZINC000541568816    0.0900
     37 H37       -11.4714    2.2823   55.0102 H       1  ZINC000541568816    0.0700
     38 H38       -13.5108    0.9668   56.8615 H       1  ZINC000541568816    0.0600
     39 H39       -13.3105    2.7182   56.6153 H       1  ZINC000541568816    0.0700
     40 H40       -13.8644    1.6883   55.2734 H       1  ZINC000541568816    0.0600
     41 H41       -12.2884   -0.8482   53.3953 H       1  ZINC000541568816    0.1000
     42 H42       -12.2689    0.9243   53.2337 H       1  ZINC000541568816    0.1100
     43 H43        -9.7850    1.9202   53.7680 H       1  ZINC000541568816    0.1300
     44 H44        -7.5260    1.8068   52.7945 H       1  ZINC000541568816    0.1300
     45 H45        -6.8304   -0.1849   51.5255 H       1  ZINC000541568816    0.1300
     46 H46        -8.3939   -2.0639   51.2281 H       1  ZINC000541568816    0.1300
     47 H47       -11.3032   -3.1074   61.2097 H       1  ZINC000541568816    0.1000
     48 H48       -10.1123   -3.4517   59.9117 H       1  ZINC000541568816    0.0900
     49 H49        -9.3587   -2.0296   62.1354 H       1  ZINC000541568816    0.0900
     50 H50        -8.7377   -1.5659   60.5145 H       1  ZINC000541568816    0.0800
     51 H51       -11.1189   -0.3982   62.0560 H       1  ZINC000541568816    0.0600
     52 H52        -9.8104    0.4783   61.2062 H       1  ZINC000541568816    0.0900
@<TRIPOS>BOND
     1     1     2    1
     2     1    28    1
     3     1    29    1
     4     1    30    1
     5     2     3    1
     6     2    31    1
     7     2    32    1
     8     3     4    1
     9     4     5    1
    10     4    23    1
    11     4     6    1
    12     6     7    1
    13     6    33    1
    14     6    34    1
    15     7     8    1
    16     7     9    1
    17     7    23    1
    18     9    10   am
    19     9    35    1
    20    10    11    2
    21    10    12   am
    22    12    13    1
    23    12    15    1
    24    13    14    1
    25    13    36    1
    26    13    37    1
    27    14    38    1
    28    14    39    1
    29    14    40    1
    30    15    16    1
    31    15    41    1
    32    15    42    1
    33    16    21   ar
    34    16    17   ar
    35    17    18   ar
    36    17    43    1
    37    18    19   ar
    38    18    44    1
    39    19    20   ar
    40    19    45    1
    41    20    21   ar
    42    20    46    1
    43    21    22    1
    44    23    27    1
    45    23    24    1
    46    24    25    1
    47    24    47    1
    48    24    48    1
    49    25    26    1
    50    25    49    1
    51    25    50    1
    52    26    27    1
    53    26    51    1
    54    26    52    1
@<TRIPOS>SUBSTRUCTURE
     1 ZINC000541568816        1 TEMP              0 ****  ****    0 ROOT


##########                                Name:    ZINC001191386213
##########                DOCK_Rotatable_Bonds:                   6
##########                         Heavy_Atoms:                  29
##########                    Molecular_Weight:             392.433
##########                DOCK_Rotatable_Bonds:                   6
##########                       Formal_Charge:               -0.02
##########                     HBond_Acceptors:                   7
##########                        HBond_Donors:                   2
##########                         Heavy_Atoms:                  29
##########                          Grid_Score:          -32.138844
##########                     Grid_vdw_energy:          -33.431072
##########                      Grid_es_energy:            1.292228
##########           Internal_energy_repulsive:            8.952303

@<TRIPOS>MOLECULE
ZINC001191386213
 50 53 1 0 0
SMALL
USER_CHARGES


@<TRIPOS>ATOM
      1 C1         -7.7363    4.6971   54.7782 C.3     1  ZINC001191386213   -0.1700
      2 C2         -7.9481    3.2868   54.2912 C.2     1  ZINC001191386213    0.5100
      3 O3         -7.9330    2.3646   55.0788 O.2     1  ZINC001191386213   -0.5200
      4 N4         -8.1545    3.0503   52.9805 N.am    1  ZINC001191386213   -0.6800
      5 C5         -8.3513    1.7407   52.5283 C.ar    1  ZINC001191386213    0.1400
      6 C6         -7.3346    1.0794   51.8507 C.ar    1  ZINC001191386213   -0.1400
      7 C7         -7.5253   -0.2141   51.4030 C.ar    1  ZINC001191386213   -0.1000
      8 C8         -8.7270   -0.8560   51.6263 C.ar    1  ZINC001191386213   -0.1100
      9 C9         -9.7524   -0.2000   52.3049 C.ar    1  ZINC001191386213    0.0100
     10 C10       -11.0452   -0.8890   52.5457 C.2     1  ZINC001191386213    0.0700
     11 N11       -12.2353   -0.4581   52.1842 N.2     1  ZINC001191386213   -0.2500
     12 N12       -13.1484   -1.2871   52.5418 N.pl3   1  ZINC001191386213   -0.3800
     13 C13       -12.5830   -2.3523   53.1848 C.2     1  ZINC001191386213   -0.0400
     14 C14       -13.2861   -3.5167   53.7473 C.2     1  ZINC001191386213    0.6100
     15 O15       -14.0401   -4.1675   53.0492 O.2     1  ZINC001191386213   -0.5100
     16 N16       -13.0943   -3.8618   55.0360 N.am    1  ZINC001191386213   -0.6200
     17 C17       -13.7294   -4.9958   55.7230 C.3     1  ZINC001191386213    0.0800
     18 C18       -13.2328   -4.9828   57.1841 C.3     1  ZINC001191386213   -0.1200
     19 C19       -12.7866   -3.5106   57.3864 C.3     1  ZINC001191386213   -0.0600
     20 H20       -13.6379   -2.8740   57.6271 H       1  ZINC001191386213    0.1000
     21 C21       -11.7228   -3.4098   58.4490 C.ar    1  ZINC001191386213   -0.1100
     22 C22       -10.5433   -4.1169   58.3154 C.ar    1  ZINC001191386213   -0.0900
     23 C23        -9.5671   -4.0247   59.2902 C.ar    1  ZINC001191386213   -0.1300
     24 C24        -9.7699   -3.2254   60.3996 C.ar    1  ZINC001191386213   -0.0900
     25 C25       -10.9492   -2.5175   60.5355 C.ar    1  ZINC001191386213   -0.1500
     26 C26       -11.9246   -2.6039   59.5570 C.ar    1  ZINC001191386213    0.1100
     27 F27       -13.0778   -1.9124   59.6888 F       1  ZINC001191386213   -0.1400
     28 C28       -12.2079   -3.1684   55.9884 C.3     1  ZINC001191386213    0.1200
     29 C29       -11.2202   -2.1239   53.1964 C.2     1  ZINC001191386213   -0.1300
     30 C30        -9.5593    1.1004   52.7615 C.ar    1  ZINC001191386213   -0.1000
     31 H31        -7.5868    4.6901   55.8580 H       1  ZINC001191386213    0.1000
     32 H32        -6.8573    5.1210   54.2926 H       1  ZINC001191386213    0.0900
     33 H33        -8.6113    5.3004   54.5365 H       1  ZINC001191386213    0.0900
     34 H34        -8.1667    3.7880   52.3506 H       1  ZINC001191386213    0.4100
     35 H35        -6.3930    1.5777   51.6729 H       1  ZINC001191386213    0.1300
     36 H36        -6.7321   -0.7242   50.8767 H       1  ZINC001191386213    0.1300
     37 H37        -8.8726   -1.8668   51.2748 H       1  ZINC001191386213    0.1300
     38 H38       -14.0982   -1.1740   52.3803 H       1  ZINC001191386213    0.4400
     39 H39       -14.8134   -4.8839   55.6989 H       1  ZINC001191386213    0.0700
     40 H40       -13.4404   -5.9300   55.2415 H       1  ZINC001191386213    0.0800
     41 H41       -14.0417   -5.2381   57.8686 H       1  ZINC001191386213    0.0900
     42 H42       -12.3899   -5.6622   57.3109 H       1  ZINC001191386213    0.0900
     43 H43       -10.3839   -4.7423   57.4494 H       1  ZINC001191386213    0.1300
     44 H44        -8.6454   -4.5777   59.1850 H       1  ZINC001191386213    0.1300
     45 H45        -9.0069   -3.1544   61.1605 H       1  ZINC001191386213    0.1300
     46 H46       -11.1079   -1.8936   61.4027 H       1  ZINC001191386213    0.1400
     47 H47       -11.1857   -3.5365   55.9004 H       1  ZINC001191386213    0.0800
     48 H48       -12.2406   -2.0924   55.8173 H       1  ZINC001191386213    0.0900
     49 H49       -10.4536   -2.7555   53.6205 H       1  ZINC001191386213    0.1700
     50 H50       -10.3511    1.6129   53.2877 H       1  ZINC001191386213    0.1500
@<TRIPOS>BOND
     1     1     2    1
     2     1    31    1
     3     1    32    1
     4     1    33    1
     5     2     3    2
     6     2     4   am
     7     4     5    1
     8     4    34    1
     9     5    30   ar
    10     5     6   ar
    11     6     7   ar
    12     6    35    1
    13     7     8   ar
    14     7    36    1
    15     8     9   ar
    16     8    37    1
    17     9    10    1
    18     9    30   ar
    19    10    29    1
    20    10    11    2
    21    11    12    1
    22    12    13    1
    23    12    38    1
    24    13    14    1
    25    13    29    2
    26    14    15    2
    27    14    16   am
    28    16    28    1
    29    16    17    1
    30    17    18    1
    31    17    39    1
    32    17    40    1
    33    18    19    1
    34    18    41    1
    35    18    42    1
    36    19    20    1
    37    19    21    1
    38    19    28    1
    39    21    26   ar
    40    21    22   ar
    41    22    23   ar
    42    22    43    1
    43    23    24   ar
    44    23    44    1
    45    24    25   ar
    46    24    45    1
    47    25    26   ar
    48    25    46    1
    49    26    27    1
    50    28    47    1
    51    28    48    1
    52    29    49    1
    53    30    50    1
@<TRIPOS>SUBSTRUCTURE
     1 ZINC001191386213        1 TEMP              0 ****  ****    0 ROOT


##########                                Name:    ZINC000588570917
##########                DOCK_Rotatable_Bonds:                   7
##########                         Heavy_Atoms:                  25
##########                    Molecular_Weight:             366.481
##########                DOCK_Rotatable_Bonds:                   7
##########                       Formal_Charge:          -0.0100006
##########                     HBond_Acceptors:                   7
##########                        HBond_Donors:                   1
##########                         Heavy_Atoms:                  25
##########                          Grid_Score:          -32.134575
##########                     Grid_vdw_energy:          -30.639547
##########                      Grid_es_energy:           -1.495028
##########           Internal_energy_repulsive:           17.144524

@<TRIPOS>MOLECULE
ZINC000588570917
 51 52 1 0 0
SMALL
USER_CHARGES


@<TRIPOS>ATOM
      1 C1         -9.1077    2.6009   55.3247 C.3     1  ZINC000588570917   -0.1300
      2 C2         -7.9727    2.5713   54.3338 C.2     1  ZINC000588570917   -0.0500
      3 C3         -8.2282    2.4656   53.0327 C.2     1  ZINC000588570917   -0.2000
      4 C4         -9.6527    2.3738   52.5495 C.3     1  ZINC000588570917   -0.0900
      5 C5        -10.0749    0.9048   52.4828 C.3     1  ZINC000588570917   -0.1500
      6 C6         -7.1206    2.4384   52.0657 C.2     1  ZINC000588570917    0.5600
      7 O7         -7.3544    2.3450   50.8758 O.2     1  ZINC000588570917   -0.5100
      8 N8         -5.8465    2.5168   52.4980 N.am    1  ZINC000588570917   -0.6800
      9 C9         -4.7933    2.4909   51.5786 C.ar    1  ZINC000588570917    0.2100
     10 C10        -3.9217    3.5685   51.4880 C.ar    1  ZINC000588570917   -0.1700
     11 C11        -2.8821    3.5394   50.5792 C.ar    1  ZINC000588570917    0.0000
     12 C12        -2.7085    2.4390   49.7600 C.ar    1  ZINC000588570917   -0.7000
     13 S13        -1.3809    2.4060   48.6019 S.o2    1  ZINC000588570917    2.6900
     14 O14        -0.5128    3.4737   48.9562 O.2     1  ZINC000588570917   -0.9500
     15 O15        -0.9550    1.0530   48.5184 O.2     1  ZINC000588570917   -0.9500
     16 N16        -2.0133    2.7895   47.1202 N.am    1  ZINC000588570917   -1.0000
     17 C17        -1.5326    3.9619   46.3720 C.3     1  ZINC000588570917    0.0900
     18 C18        -1.1878    3.5172   44.9460 C.3     1  ZINC000588570917    0.0700
     19 H19        -0.3216    2.8560   44.9702 H       1  ZINC000588570917    0.0700
     20 C20        -0.8693    4.7452   44.0907 C.3     1  ZINC000588570917   -0.1500
     21 O21        -2.3044    2.8213   44.3869 O.3     1  ZINC000588570917   -0.3700
     22 C22        -2.6520    1.6202   45.0799 C.3     1  ZINC000588570917    0.0800
     23 H23        -3.4796    1.1304   44.5667 H       1  ZINC000588570917    0.1200
     24 C24        -1.4441    0.6817   45.1135 C.3     1  ZINC000588570917   -0.1900
     25 C25        -3.0679    1.9645   46.5102 C.3     1  ZINC000588570917    0.0900
     26 C26        -3.5742    1.3642   49.8479 C.ar    1  ZINC000588570917    0.0000
     27 C27        -4.6128    1.3849   50.7579 C.ar    1  ZINC000588570917   -0.1400
     28 H28        -8.7065    2.6905   56.3341 H       1  ZINC000588570917    0.0600
     29 H29        -9.7526    3.4538   55.1130 H       1  ZINC000588570917    0.0800
     30 H30        -9.6851    1.6799   55.2436 H       1  ZINC000588570917    0.0800
     31 H31        -6.9517    2.6356   54.6801 H       1  ZINC000588570917    0.1300
     32 H32       -10.3056    2.9087   53.2392 H       1  ZINC000588570917    0.0700
     33 H33        -9.7292    2.8192   51.5575 H       1  ZINC000588570917    0.0800
     34 H34        -9.9984    0.4595   53.4748 H       1  ZINC000588570917    0.0500
     35 H35       -11.1052    0.8384   52.1333 H       1  ZINC000588570917    0.0600
     36 H36        -9.4220    0.3700   51.7931 H       1  ZINC000588570917    0.0600
     37 H37        -5.6601    2.5914   53.4469 H       1  ZINC000588570917    0.4100
     38 H38        -4.0569    4.4285   52.1273 H       1  ZINC000588570917    0.1400
     39 H39        -2.2043    4.3772   50.5081 H       1  ZINC000588570917    0.1400
     40 H40        -2.3127    4.7225   46.3407 H       1  ZINC000588570917    0.0900
     41 H41        -0.6435    4.3667   46.8553 H       1  ZINC000588570917    0.1000
     42 H42        -0.0203    5.2770   44.5204 H       1  ZINC000588570917    0.0700
     43 H43        -0.6241    4.4284   43.0770 H       1  ZINC000588570917    0.0700
     44 H44        -1.7364    5.4053   44.0654 H       1  ZINC000588570917    0.0700
     45 H45        -0.6177    1.1716   45.6284 H       1  ZINC000588570917    0.0600
     46 H46        -1.7100   -0.2338   45.6420 H       1  ZINC000588570917    0.0700
     47 H47        -1.1443    0.4388   44.0942 H       1  ZINC000588570917    0.0700
     48 H48        -3.1979    1.0477   47.0854 H       1  ZINC000588570917    0.1000
     49 H49        -4.0027    2.5250   46.4958 H       1  ZINC000588570917    0.0900
     50 H50        -3.4359    0.5063   49.2067 H       1  ZINC000588570917    0.1400
     51 H51        -5.2884    0.5450   50.8264 H       1  ZINC000588570917    0.1500
@<TRIPOS>BOND
     1     1     2    1
     2     1    28    1
     3     1    29    1
     4     1    30    1
     5     2     3    2
     6     2    31    1
     7     3     4    1
     8     3     6    1
     9     4     5    1
    10     4    32    1
    11     4    33    1
    12     5    34    1
    13     5    35    1
    14     5    36    1
    15     6     7    2
    16     6     8   am
    17     8     9    1
    18     8    37    1
    19     9    27   ar
    20     9    10   ar
    21    10    11   ar
    22    10    38    1
    23    11    12   ar
    24    11    39    1
    25    12    13    1
    26    12    26   ar
    27    13    14    2
    28    13    15    2
    29    13    16   am
    30    16    25    1
    31    16    17    1
    32    17    18    1
    33    17    40    1
    34    17    41    1
    35    18    19    1
    36    18    20    1
    37    18    21    1
    38    20    42    1
    39    20    43    1
    40    20    44    1
    41    21    22    1
    42    22    23    1
    43    22    24    1
    44    22    25    1
    45    24    45    1
    46    24    46    1
    47    24    47    1
    48    25    48    1
    49    25    49    1
    50    26    27   ar
    51    26    50    1
    52    27    51    1
@<TRIPOS>SUBSTRUCTURE
     1 ZINC000588570917        1 TEMP              0 ****  ****    0 ROOT


##########                                Name:    ZINC001176298561
##########                DOCK_Rotatable_Bonds:                   6
##########                         Heavy_Atoms:                  23
##########                    Molecular_Weight:             337.781
##########                DOCK_Rotatable_Bonds:                   6
##########                       Formal_Charge:          -0.0100003
##########                     HBond_Acceptors:                   7
##########                        HBond_Donors:                   2
##########                         Heavy_Atoms:                  23
##########                          Grid_Score:          -32.131783
##########                     Grid_vdw_energy:          -29.910404
##########                      Grid_es_energy:           -2.221377
##########           Internal_energy_repulsive:           12.306189

@<TRIPOS>MOLECULE
ZINC001176298561
 40 41 1 0 0
SMALL
USER_CHARGES


@<TRIPOS>ATOM
      1 C1        -13.4901   -0.8288   54.1585 C.3     1  ZINC001176298561   -0.1700
      2 C2        -12.0158   -0.9786   54.5390 C.3     1  ZINC001176298561    0.1100
      3 N3        -11.3214   -1.7525   53.5070 N.am    1  ZINC001176298561   -0.6100
      4 C4        -10.6300   -1.0628   52.4150 C.3     1  ZINC001176298561    0.0900
      5 C5         -9.7982    0.0882   52.9845 C.3     1  ZINC001176298561   -0.1800
      6 C6        -11.3186   -3.0991   53.5622 C.2     1  ZINC001176298561    0.5600
      7 O7        -10.7426   -3.7414   52.7060 O.2     1  ZINC001176298561   -0.5300
      8 C8        -12.0165   -3.7954   54.6645 C.ar    1  ZINC001176298561   -0.0600
      9 C9        -13.2851   -4.3387   54.4569 C.ar    1  ZINC001176298561   -0.1900
     10 C10       -13.9356   -4.9891   55.4892 C.ar    1  ZINC001176298561    0.1400
     11 F11       -15.1635   -5.5149   55.2865 F       1  ZINC001176298561   -0.1300
     12 C12       -13.3319   -5.1037   56.7294 C.ar    1  ZINC001176298561   -0.1800
     13 C13       -12.0684   -4.5653   56.9442 C.ar    1  ZINC001176298561    0.2400
     14 N14       -11.4629   -4.6836   58.1973 N.pl3   1  ZINC001176298561   -0.6700
     15 C15       -11.0346   -3.5380   58.8788 C.2     1  ZINC001176298561    0.0400
     16 C16       -11.8786   -2.4736   59.0417 C.2     1  ZINC001176298561   -0.0300
     17 C17       -11.4245   -1.3379   59.7291 C.2     1  ZINC001176298561   -0.1300
     18 Cl18      -12.4791    0.0237   59.9470 Cl      1  ZINC001176298561   -0.0400
     19 C19       -10.1649   -1.3037   60.2226 C.2     1  ZINC001176298561    0.1400
     20 N20        -9.3244   -2.3617   60.0613 N.am    1  ZINC001176298561   -0.6000
     21 C21        -9.7284   -3.4698   59.4113 C.2     1  ZINC001176298561    0.5100
     22 O22        -8.9632   -4.4110   59.2748 O.2     1  ZINC001176298561   -0.5200
     23 C23       -11.4063   -3.9161   55.9128 C.ar    1  ZINC001176298561   -0.1300
     24 H24       -14.0068   -0.2528   54.9263 H       1  ZINC001176298561    0.0700
     25 H25       -13.5678   -0.3113   53.2023 H       1  ZINC001176298561    0.0600
     26 H26       -13.9461   -1.8154   54.0758 H       1  ZINC001176298561    0.0600
     27 H27       -11.5598    0.0080   54.6216 H       1  ZINC001176298561    0.0800
     28 H28       -11.9380   -1.4960   55.4952 H       1  ZINC001176298561    0.0900
     29 H29        -9.9742   -1.7645   51.8995 H       1  ZINC001176298561    0.0900
     30 H30       -11.3638   -0.6680   51.7123 H       1  ZINC001176298561    0.0800
     31 H31        -9.3295   -0.2285   53.9162 H       1  ZINC001176298561    0.0700
     32 H32        -9.0273    0.3691   52.2669 H       1  ZINC001176298561    0.0700
     33 H33       -10.4454    0.9441   53.1758 H       1  ZINC001176298561    0.0600
     34 H34       -13.7589   -4.2506   53.4904 H       1  ZINC001176298561    0.1500
     35 H35       -13.8442   -5.6124   57.5326 H       1  ZINC001176298561    0.1300
     36 H36       -11.3390   -5.5595   58.5954 H       1  ZINC001176298561    0.4200
     37 H37       -12.8828   -2.5070   58.6455 H       1  ZINC001176298561    0.1500
     38 H38        -9.8226   -0.4260   60.7506 H       1  ZINC001176298561    0.1800
     39 H39        -8.4249   -2.3186   60.4219 H       1  ZINC001176298561    0.4300
     40 H40       -10.4246   -3.4974   56.0784 H       1  ZINC001176298561    0.1400
@<TRIPOS>BOND
     1     1     2    1
     2     1    24    1
     3     1    25    1
     4     1    26    1
     5     2     3    1
     6     2    27    1
     7     2    28    1
     8     3     4    1
     9     3     6   am
    10     4     5    1
    11     4    29    1
    12     4    30    1
    13     5    31    1
    14     5    32    1
    15     5    33    1
    16     6     7    2
    17     6     8    1
    18     8    23   ar
    19     8     9   ar
    20     9    10   ar
    21     9    34    1
    22    10    11    1
    23    10    12   ar
    24    12    13   ar
    25    12    35    1
    26    13    14    1
    27    13    23   ar
    28    14    15    1
    29    14    36    1
    30    15    21    1
    31    15    16    2
    32    16    17    1
    33    16    37    1
    34    17    18    1
    35    17    19    2
    36    19    20    1
    37    19    38    1
    38    20    21   am
    39    20    39    1
    40    21    22    2
    41    23    40    1
@<TRIPOS>SUBSTRUCTURE
     1 ZINC001176298561        1 TEMP              0 ****  ****    0 ROOT


##########                                Name:    ZINC000451019064
##########                DOCK_Rotatable_Bonds:                   8
##########                         Heavy_Atoms:                  23
##########                    Molecular_Weight:             346.534
##########                DOCK_Rotatable_Bonds:                   8
##########                       Formal_Charge:          -0.0200008
##########                     HBond_Acceptors:                   6
##########                        HBond_Donors:                   1
##########                         Heavy_Atoms:                  23
##########                          Grid_Score:          -32.045570
##########                     Grid_vdw_energy:          -32.159039
##########                      Grid_es_energy:            0.113469
##########           Internal_energy_repulsive:           12.029282

@<TRIPOS>MOLECULE
ZINC000451019064
 57 58 1 0 0
SMALL
USER_CHARGES


@<TRIPOS>ATOM
      1 C1        -14.6346   -2.6849   60.4950 C.3     1  ZINC000451019064   -0.1500
      2 C2        -13.4224   -2.4866   59.5826 C.3     1  ZINC000451019064    0.0900
      3 H3        -13.3264   -1.4308   59.3294 H       1  ZINC000451019064    0.0700
      4 C4        -13.6073   -3.3049   58.3019 C.3     1  ZINC000451019064    0.0200
      5 N5        -12.4068   -3.1719   57.4640 N.3     1  ZINC000451019064   -0.5400
      6 C6        -12.5662   -3.8976   56.1968 C.3     1  ZINC000451019064    0.0600
      7 C7        -11.4093   -3.5466   55.2590 C.3     1  ZINC000451019064   -0.1300
      8 C8        -11.9050   -3.5564   53.8116 C.3     1  ZINC000451019064    0.1100
      9 N9        -10.8080   -3.1787   52.9172 N.am    1  ZINC000451019064   -1.1200
     10 S10       -10.8160   -1.6974   52.1767 S.o2    1  ZINC000451019064    2.6100
     11 O11        -9.5790   -1.6476   51.4792 O.2     1  ZINC000451019064   -0.9600
     12 O12       -12.0530   -1.6616   51.4781 O.2     1  ZINC000451019064   -0.9500
     13 C13       -10.8234   -0.5071   53.5455 C.3     1  ZINC000451019064   -0.6300
     14 C14       -11.0206    0.9055   52.9920 C.3     1  ZINC000451019064   -0.1100
     15 C15        -9.7167    1.3905   52.3553 C.3     1  ZINC000451019064   -0.0800
     16 C16        -9.9995    2.6157   51.4837 C.3     1  ZINC000451019064   -0.1200
     17 C17        -8.6956    3.1007   50.8470 C.3     1  ZINC000451019064   -0.1200
     18 C18        -7.7000    3.4760   51.9464 C.3     1  ZINC000451019064   -0.1200
     19 C19        -7.4170    2.2509   52.8181 C.3     1  ZINC000451019064   -0.1200
     20 C20        -8.7211    1.7658   53.4548 C.3     1  ZINC000451019064   -0.1200
     21 C21       -11.2126   -3.6317   58.1879 C.3     1  ZINC000451019064    0.0200
     22 C22       -11.0518   -2.8102   59.4698 C.3     1  ZINC000451019064    0.0900
     23 H23       -10.8860   -1.7639   59.2132 H       1  ZINC000451019064    0.0700
     24 C24        -9.8565   -3.3362   60.2671 C.3     1  ZINC000451019064   -0.1500
     25 O25       -12.2401   -2.9254   60.2572 O.3     1  ZINC000451019064   -0.3800
     26 H26       -14.5016   -2.1034   61.4073 H       1  ZINC000451019064    0.0700
     27 H27       -15.5354   -2.3518   59.9798 H       1  ZINC000451019064    0.0700
     28 H28       -14.7301   -3.7409   60.7479 H       1  ZINC000451019064    0.0600
     29 H29       -13.7578   -4.3535   58.5585 H       1  ZINC000451019064    0.0400
     30 H30       -14.4751   -2.9349   57.7559 H       1  ZINC000451019064    0.0900
     31 H31       -12.5647   -4.9703   56.3898 H       1  ZINC000451019064    0.0400
     32 H32       -13.5100   -3.6133   55.7315 H       1  ZINC000451019064    0.0800
     33 H33       -11.0291   -2.5555   55.5062 H       1  ZINC000451019064    0.0800
     34 H34       -10.6120   -4.2809   55.3750 H       1  ZINC000451019064    0.0800
     35 H35       -12.2557   -4.5559   53.5545 H       1  ZINC000451019064    0.0800
     36 H36       -12.7237   -2.8450   53.7032 H       1  ZINC000451019064    0.0700
     37 H37       -10.0768   -3.7961   52.7587 H       1  ZINC000451019064    0.4200
     38 H38       -11.6372   -0.7459   54.2303 H       1  ZINC000451019064    0.1300
     39 H39        -9.8736   -0.5595   54.0777 H       1  ZINC000451019064    0.1400
     40 H40       -11.8098    0.8943   52.2402 H       1  ZINC000451019064    0.0800
     41 H41       -11.3009    1.5777   53.8030 H       1  ZINC000451019064    0.0800
     42 H42        -9.2955    0.5959   51.7395 H       1  ZINC000451019064    0.0800
     43 H43       -10.7088    2.3483   50.7004 H       1  ZINC000451019064    0.0600
     44 H44       -10.4208    3.4103   52.0994 H       1  ZINC000451019064    0.0700
     45 H45        -8.2744    2.3061   50.2312 H       1  ZINC000451019064    0.0600
     46 H46        -8.8971    3.9735   50.2260 H       1  ZINC000451019064    0.0600
     47 H47        -6.7710    3.8215   51.4929 H       1  ZINC000451019064    0.0600
     48 H48        -8.1212    4.2706   52.5623 H       1  ZINC000451019064    0.0600
     49 H49        -6.9958    1.4562   52.2024 H       1  ZINC000451019064    0.0600
     50 H50        -6.7077    2.5182   53.6014 H       1  ZINC000451019064    0.0600
     51 H51        -9.1423    2.5604   54.0706 H       1  ZINC000451019064    0.0700
     52 H52        -8.5195    0.8930   54.0758 H       1  ZINC000451019064    0.0600
     53 H53       -11.3249   -4.6855   58.4427 H       1  ZINC000451019064    0.0400
     54 H54       -10.3324   -3.5004   57.5586 H       1  ZINC000451019064    0.0900
     55 H55        -8.9520   -3.2504   59.6649 H       1  ZINC000451019064    0.0700
     56 H56        -9.7425   -2.7510   61.1795 H       1  ZINC000451019064    0.0700
     57 H57       -10.0236   -4.3821   60.5247 H       1  ZINC000451019064    0.0600
@<TRIPOS>BOND
     1     1     2    1
     2     1    26    1
     3     1    27    1
     4     1    28    1
     5     2     3    1
     6     2    25    1
     7     2     4    1
     8     4     5    1
     9     4    29    1
    10     4    30    1
    11     5     6    1
    12     5    21    1
    13     6     7    1
    14     6    31    1
    15     6    32    1
    16     7     8    1
    17     7    33    1
    18     7    34    1
    19     8     9    1
    20     8    35    1
    21     8    36    1
    22     9    10   am
    23     9    37    1
    24    10    11    2
    25    10    12    2
    26    10    13    1
    27    13    14    1
    28    13    38    1
    29    13    39    1
    30    14    15    1
    31    14    40    1
    32    14    41    1
    33    15    20    1
    34    15    16    1
    35    15    42    1
    36    16    17    1
    37    16    43    1
    38    16    44    1
    39    17    18    1
    40    17    45    1
    41    17    46    1
    42    18    19    1
    43    18    47    1
    44    18    48    1
    45    19    20    1
    46    19    49    1
    47    19    50    1
    48    20    51    1
    49    20    52    1
    50    21    22    1
    51    21    53    1
    52    21    54    1
    53    22    23    1
    54    22    24    1
    55    22    25    1
    56    24    55    1
    57    24    56    1
    58    24    57    1
@<TRIPOS>SUBSTRUCTURE
     1 ZINC000451019064        1 TEMP              0 ****  ****    0 ROOT


##########                                Name:    ZINC000463741321
##########                DOCK_Rotatable_Bonds:                   7
##########                         Heavy_Atoms:                  26
##########                    Molecular_Weight:             354.467
##########                DOCK_Rotatable_Bonds:                   7
##########                       Formal_Charge:         -6.4075e-07
##########                     HBond_Acceptors:                   4
##########                        HBond_Donors:                   1
##########                         Heavy_Atoms:                  26
##########                          Grid_Score:          -32.037151
##########                     Grid_vdw_energy:          -31.879295
##########                      Grid_es_energy:           -0.157856
##########           Internal_energy_repulsive:           12.789957

@<TRIPOS>MOLECULE
ZINC000463741321
 53 55 1 0 0
SMALL
USER_CHARGES


@<TRIPOS>ATOM
      1 C1        -12.8017   -4.1923   53.9277 C.3     1  ZINC000463741321   -0.1500
      2 C2        -11.5827   -3.5704   54.6121 C.3     1  ZINC000463741321   -0.1100
      3 H3        -10.6858   -4.1200   54.3263 H       1  ZINC000463741321    0.1000
      4 C4        -11.4451   -2.1093   54.1796 C.3     1  ZINC000463741321   -0.0900
      5 C5        -10.7893   -2.0458   52.7987 C.3     1  ZINC000463741321   -0.0800
      6 C6        -10.0421   -0.7449   52.6569 C.ar    1  ZINC000463741321   -0.1200
      7 C7        -10.5826    0.4215   53.1636 C.ar    1  ZINC000463741321   -0.0900
      8 C8         -9.8973    1.6153   53.0335 C.ar    1  ZINC000463741321   -0.1300
      9 C9         -8.6711    1.6435   52.3962 C.ar    1  ZINC000463741321   -0.1000
     10 C10        -8.1286    0.4782   51.8882 C.ar    1  ZINC000463741321   -0.1500
     11 C11        -8.8108   -0.7188   52.0237 C.ar    1  ZINC000463741321    0.1000
     12 F12        -8.2815   -1.8584   51.5274 F       1  ZINC000463741321   -0.1400
     13 C13       -11.7575   -3.6374   56.1074 C.2     1  ZINC000463741321    0.5200
     14 O14       -12.6832   -4.2607   56.5825 O.2     1  ZINC000463741321   -0.5300
     15 N15       -10.8852   -3.0048   56.9170 N.am    1  ZINC000463741321   -0.7300
     16 C16       -11.0563   -3.0685   58.3706 C.3     1  ZINC000463741321    0.1500
     17 H17       -11.5334   -4.0107   58.6399 H       1  ZINC000463741321    0.1000
     18 C18        -9.6876   -2.9759   59.0509 C.3     1  ZINC000463741321   -0.1300
     19 C19        -9.8800   -2.9827   60.5699 C.3     1  ZINC000463741321   -0.1200
     20 C20       -10.7886   -1.8178   60.9694 C.3     1  ZINC000463741321    0.0600
     21 N21       -12.0852   -1.9526   60.2932 N.3     1  ZINC000463741321   -0.4800
     22 C22       -12.9841   -0.9796   60.7360 C.ar    1  ZINC000463741321    0.1100
     23 C23       -12.7732    0.3572   60.4228 C.ar    1  ZINC000463741321   -0.1700
     24 C24       -13.6643    1.3166   60.8617 C.ar    1  ZINC000463741321   -0.0900
     25 C25       -14.7653    0.9478   61.6128 C.ar    1  ZINC000463741321   -0.1500
     26 C26       -14.9783   -0.3820   61.9264 C.ar    1  ZINC000463741321   -0.0900
     27 C27       -14.0942   -1.3472   61.4859 C.ar    1  ZINC000463741321   -0.1400
     28 C28       -11.9316   -1.9017   58.8336 C.3     1  ZINC000463741321    0.0500
     29 H29       -13.6986   -3.6427   54.2136 H       1  ZINC000463741321    0.0600
     30 H30       -12.6752   -4.1439   52.8463 H       1  ZINC000463741321    0.0700
     31 H31       -12.8997   -5.2332   54.2358 H       1  ZINC000463741321    0.0600
     32 H32       -12.4322   -1.6492   54.1346 H       1  ZINC000463741321    0.0700
     33 H33       -10.8271   -1.5737   54.9004 H       1  ZINC000463741321    0.0700
     34 H34       -10.0942   -2.8780   52.6880 H       1  ZINC000463741321    0.0800
     35 H35       -11.5577   -2.1093   52.0284 H       1  ZINC000463741321    0.0800
     36 H36       -11.5410    0.4007   53.6610 H       1  ZINC000463741321    0.1300
     37 H37       -10.3206    2.5264   53.4299 H       1  ZINC000463741321    0.1300
     38 H38        -8.1367    2.5767   52.2949 H       1  ZINC000463741321    0.1300
     39 H39        -7.1708    0.5007   51.3897 H       1  ZINC000463741321    0.1400
     40 H40       -10.1443   -2.5073   56.5372 H       1  ZINC000463741321    0.4000
     41 H41        -9.0764   -3.8293   58.7573 H       1  ZINC000463741321    0.0700
     42 H42        -9.1933   -2.0520   58.7505 H       1  ZINC000463741321    0.0600
     43 H43       -10.3390   -3.9232   60.8744 H       1  ZINC000463741321    0.0800
     44 H44        -8.9123   -2.8739   61.0598 H       1  ZINC000463741321    0.0800
     45 H45       -10.9392   -1.8283   62.0488 H       1  ZINC000463741321    0.0900
     46 H46       -10.3226   -0.8768   60.6770 H       1  ZINC000463741321    0.0500
     47 H47       -11.9131    0.6459   59.8368 H       1  ZINC000463741321    0.1200
     48 H48       -13.5009    2.3560   60.6186 H       1  ZINC000463741321    0.1200
     49 H49       -15.4602    1.7002   61.9555 H       1  ZINC000463741321    0.1200
     50 H50       -15.8392   -0.6667   62.5133 H       1  ZINC000463741321    0.1200
     51 H51       -14.2613   -2.3857   61.7309 H       1  ZINC000463741321    0.1300
     52 H52       -11.4602   -0.9605   58.5507 H       1  ZINC000463741321    0.0500
     53 H53       -12.9120   -1.9728   58.3626 H       1  ZINC000463741321    0.0900
@<TRIPOS>BOND
     1     1     2    1
     2     1    29    1
     3     1    30    1
     4     1    31    1
     5     2     3    1
     6     2     4    1
     7     2    13    1
     8     4     5    1
     9     4    32    1
    10     4    33    1
    11     5     6    1
    12     5    34    1
    13     5    35    1
    14     6    11   ar
    15     6     7   ar
    16     7     8   ar
    17     7    36    1
    18     8     9   ar
    19     8    37    1
    20     9    10   ar
    21     9    38    1
    22    10    11   ar
    23    10    39    1
    24    11    12    1
    25    13    14    2
    26    13    15   am
    27    15    16    1
    28    15    40    1
    29    16    17    1
    30    16    28    1
    31    16    18    1
    32    18    19    1
    33    18    41    1
    34    18    42    1
    35    19    20    1
    36    19    43    1
    37    19    44    1
    38    20    21    1
    39    20    45    1
    40    20    46    1
    41    21    22    1
    42    21    28    1
    43    22    27   ar
    44    22    23   ar
    45    23    24   ar
    46    23    47    1
    47    24    25   ar
    48    24    48    1
    49    25    26   ar
    50    25    49    1
    51    26    27   ar
    52    26    50    1
    53    27    51    1
    54    28    52    1
    55    28    53    1
@<TRIPOS>SUBSTRUCTURE
     1 ZINC000463741321        1 TEMP              0 ****  ****    0 ROOT


##########                                Name:    ZINC001513543414
##########                DOCK_Rotatable_Bonds:                   6
##########                         Heavy_Atoms:                  26
##########                    Molecular_Weight:             364.488
##########                DOCK_Rotatable_Bonds:                   6
##########                       Formal_Charge:         -0.00999974
##########                     HBond_Acceptors:                   7
##########                        HBond_Donors:                   0
##########                         Heavy_Atoms:                  26
##########                          Grid_Score:          -32.002796
##########                     Grid_vdw_energy:          -31.305405
##########                      Grid_es_energy:           -0.697391
##########           Internal_energy_repulsive:           18.026958

@<TRIPOS>MOLECULE
ZINC001513543414
 58 61 1 0 0
SMALL
USER_CHARGES


@<TRIPOS>ATOM
      1 C1         -7.9592    3.7178   55.9179 C.3     1  ZINC001513543414   -0.1500
      2 C2         -8.8245    3.5818   57.1723 C.3     1  ZINC001513543414   -0.1200
      3 C3         -9.8110    2.4270   56.9888 C.3     1  ZINC001513543414    0.1100
      4 C4        -10.7446    2.7239   55.8135 C.3     1  ZINC001513543414   -0.1500
      5 C5         -9.0395    1.1153   56.7287 C.3     1  ZINC001513543414   -0.1500
      6 C6         -9.8683    0.0796   57.5365 C.3     1  ZINC001513543414   -0.1500
      7 C7        -10.3311    0.9445   58.7359 C.3     1  ZINC001513543414    0.0700
      8 H8         -9.5466    0.9950   59.4909 H       1  ZINC001513543414    0.0800
      9 C9        -11.6135    0.3700   59.3414 C.3     1  ZINC001513543414    0.1100
     10 N10       -11.3488   -0.9739   59.8609 N.pl3   1  ZINC001513543414   -0.4600
     11 C11       -10.6803   -1.2983   61.0089 C.2     1  ZINC001513543414    0.1900
     12 C12       -10.0695   -0.3315   61.9903 C.3     1  ZINC001513543414    0.1800
     13 H13        -9.6279    0.5139   61.4627 H       1  ZINC001513543414    0.1000
     14 C14       -11.1399    0.1619   62.9961 C.3     1  ZINC001513543414   -0.1500
     15 C15       -10.2485    0.5573   64.2049 C.3     1  ZINC001513543414   -0.1500
     16 C16        -9.1145   -0.4878   64.1314 C.3     1  ZINC001513543414    0.0500
     17 O17        -9.0770   -0.9936   62.7903 O.3     1  ZINC001513543414   -0.3500
     18 N18       -10.6701   -2.5982   61.0972 N.2     1  ZINC001513543414   -0.2600
     19 N19       -11.2819   -3.1132   60.0911 N.2     1  ZINC001513543414   -0.3100
     20 C20       -11.7233   -2.1615   59.3029 C.2     1  ZINC001513543414    0.3400
     21 N21       -12.4289   -2.3307   58.1222 N.3     1  ZINC001513543414   -0.4500
     22 C22       -13.8520   -2.6256   58.3931 C.3     1  ZINC001513543414    0.0500
     23 C23       -14.2813   -3.5837   57.2542 C.3     1  ZINC001513543414   -0.1500
     24 C24       -13.0035   -4.4441   57.0703 C.3     1  ZINC001513543414    0.0700
     25 H25       -12.9730   -5.2504   57.8032 H       1  ZINC001513543414    0.0800
     26 O26       -12.9337   -4.9677   55.7424 O.3     1  ZINC001513543414   -0.3800
     27 C27       -14.0270   -5.8201   55.3956 C.3     1  ZINC001513543414    0.0300
     28 C28       -11.8647   -3.4337   57.3229 C.3     1  ZINC001513543414    0.0600
     29 O29       -10.5779    2.2481   58.1853 O.3     1  ZINC001513543414   -0.3600
     30 H30        -7.2564    4.5405   56.0487 H       1  ZINC001513543414    0.0500
     31 H31        -7.4081    2.7917   55.7546 H       1  ZINC001513543414    0.0500
     32 H32        -8.5967    3.9179   55.0567 H       1  ZINC001513543414    0.0600
     33 H33        -8.1870    3.3817   58.0335 H       1  ZINC001513543414    0.0700
     34 H34        -9.3755    4.5079   57.3357 H       1  ZINC001513543414    0.0600
     35 H35       -10.1577    2.8310   54.9013 H       1  ZINC001513543414    0.0700
     36 H36       -11.4528    1.9036   55.6957 H       1  ZINC001513543414    0.0600
     37 H37       -11.2885    3.6486   56.0063 H       1  ZINC001513543414    0.0700
     38 H38        -9.0398    0.8690   55.6669 H       1  ZINC001513543414    0.0900
     39 H39        -8.0214    1.1815   57.1124 H       1  ZINC001513543414    0.0800
     40 H40       -10.7203   -0.2784   56.9584 H       1  ZINC001513543414    0.0800
     41 H41        -9.2443   -0.7503   57.8680 H       1  ZINC001513543414    0.0900
     42 H42       -11.9517    1.0134   60.1535 H       1  ZINC001513543414    0.1000
     43 H43       -12.3857    0.3172   58.5738 H       1  ZINC001513543414    0.1100
     44 H44       -11.6775    1.0259   62.6053 H       1  ZINC001513543414    0.0900
     45 H45       -11.8287   -0.6399   63.2616 H       1  ZINC001513543414    0.0900
     46 H46        -9.8546    1.5663   64.0829 H       1  ZINC001513543414    0.0800
     47 H47       -10.8004    0.4656   65.1403 H       1  ZINC001513543414    0.0900
     48 H48        -8.1618   -0.0173   64.3744 H       1  ZINC001513543414    0.0700
     49 H49        -9.3153   -1.3009   64.8289 H       1  ZINC001513543414    0.0700
     50 H50       -13.9606   -3.1143   59.3614 H       1  ZINC001513543414    0.0600
     51 H51       -14.4421   -1.7096   58.3611 H       1  ZINC001513543414    0.0900
     52 H52       -15.1264   -4.2003   57.5603 H       1  ZINC001513543414    0.0800
     53 H53       -14.5133   -3.0298   56.3446 H       1  ZINC001513543414    0.0900
     54 H54       -13.9001   -6.1760   54.3732 H       1  ZINC001513543414    0.0900
     55 H55       -14.0542   -6.6711   56.0760 H       1  ZINC001513543414    0.0400
     56 H56       -14.9607   -5.2630   55.4731 H       1  ZINC001513543414    0.0400
     57 H57       -11.4916   -3.0505   56.3732 H       1  ZINC001513543414    0.1000
     58 H58       -11.0570   -3.9156   57.8739 H       1  ZINC001513543414    0.0900
@<TRIPOS>BOND
     1     1     2    1
     2     1    30    1
     3     1    31    1
     4     1    32    1
     5     2     3    1
     6     2    33    1
     7     2    34    1
     8     3    29    1
     9     3     4    1
    10     3     5    1
    11     4    35    1
    12     4    36    1
    13     4    37    1
    14     5     6    1
    15     5    38    1
    16     5    39    1
    17     6     7    1
    18     6    40    1
    19     6    41    1
    20     7     8    1
    21     7     9    1
    22     7    29    1
    23     9    10    1
    24     9    42    1
    25     9    43    1
    26    10    20    1
    27    10    11    1
    28    11    12    1
    29    11    18    2
    30    12    13    1
    31    12    17    1
    32    12    14    1
    33    14    15    1
    34    14    44    1
    35    14    45    1
    36    15    16    1
    37    15    46    1
    38    15    47    1
    39    16    17    1
    40    16    48    1
    41    16    49    1
    42    18    19    1
    43    19    20    2
    44    20    21    1
    45    21    28    1
    46    21    22    1
    47    22    23    1
    48    22    50    1
    49    22    51    1
    50    23    24    1
    51    23    52    1
    52    23    53    1
    53    24    25    1
    54    24    26    1
    55    24    28    1
    56    26    27    1
    57    27    54    1
    58    27    55    1
    59    27    56    1
    60    28    57    1
    61    28    58    1
@<TRIPOS>SUBSTRUCTURE
     1 ZINC001513543414        1 TEMP              0 ****  ****    0 ROOT


##########                                Name:    ZINC000646817380
##########                DOCK_Rotatable_Bonds:                   6
##########                         Heavy_Atoms:                  25
##########                    Molecular_Weight:             347.457
##########                DOCK_Rotatable_Bonds:                   6
##########                       Formal_Charge:           0.0199991
##########                     HBond_Acceptors:                   6
##########                        HBond_Donors:                   1
##########                         Heavy_Atoms:                  25
##########                          Grid_Score:          -31.996910
##########                     Grid_vdw_energy:          -30.961256
##########                      Grid_es_energy:           -1.035653
##########           Internal_energy_repulsive:           55.567436

@<TRIPOS>MOLECULE
ZINC000646817380
 54 56 1 0 0
SMALL
USER_CHARGES


@<TRIPOS>ATOM
      1 C1        -16.5043   -2.7293   53.9259 C.3     1  ZINC000646817380   -0.1500
      2 C2        -15.2991   -3.5350   53.4368 C.3     1  ZINC000646817380   -0.0100
      3 C3        -14.2599   -2.5854   52.8375 C.3     1  ZINC000646817380   -0.1500
      4 C4        -14.6892   -4.2805   54.5959 C.2     1  ZINC000646817380   -0.0100
      5 C5        -13.7954   -3.7959   55.4877 C.2     1  ZINC000646817380   -0.2200
      6 C6        -13.5521   -4.8916   56.3585 C.2     1  ZINC000646817380    0.2400
      7 N7        -12.6975   -4.9119   57.4591 N.am    1  ZINC000646817380   -0.6100
      8 C8        -11.5605   -4.1885   57.4428 C.2     1  ZINC000646817380    0.5200
      9 O9        -11.2814   -3.5185   56.4703 O.2     1  ZINC000646817380   -0.4900
     10 C10       -10.6436   -4.2116   58.6219 C.2     1  ZINC000646817380    0.5300
     11 O11       -10.0052   -5.2123   58.8746 O.2     1  ZINC000646817380   -0.5100
     12 N12       -10.5253   -3.1212   59.4051 N.am    1  ZINC000646817380   -0.5800
     13 C13        -9.6638   -3.0075   60.5910 C.3     1  ZINC000646817380    0.1000
     14 C14        -9.8749   -1.5955   61.1770 C.3     1  ZINC000646817380   -0.1300
     15 C15       -11.2651   -1.1918   60.6187 C.3     1  ZINC000646817380   -0.1000
     16 H16       -12.0670   -1.6091   61.2278 H       1  ZINC000646817380    0.1000
     17 C17       -11.3939    0.3291   60.5150 C.3     1  ZINC000646817380   -0.0700
     18 H18       -10.4114    0.7777   60.3684 H       1  ZINC000646817380    0.0800
     19 C19       -12.3253    0.7020   59.3430 C.3     1  ZINC000646817380   -0.1300
     20 C20       -13.1108    1.9332   59.8589 C.3     1  ZINC000646817380   -0.1300
     21 C21       -13.3508    1.5857   61.3491 C.3     1  ZINC000646817380   -0.1200
     22 C22       -12.0448    0.8912   61.7910 C.3     1  ZINC000646817380   -0.0700
     23 C23       -12.3598   -0.2471   62.7637 C.3     1  ZINC000646817380   -0.1600
     24 C24       -11.1107    1.9051   62.4547 C.3     1  ZINC000646817380   -0.1400
     25 C25       -11.2335   -1.8429   59.2109 C.3     1  ZINC000646817380    0.0900
     26 N26       -14.2911   -5.8771   55.9202 N.2     1  ZINC000646817380   -0.3800
     27 O27       -14.9312   -5.5515   54.9474 O.3     1  ZINC000646817380    0.1100
     28 H28       -16.9454   -2.1902   53.0876 H       1  ZINC000646817380    0.0700
     29 H29       -17.2446   -3.4058   54.3529 H       1  ZINC000646817380    0.0600
     30 H30       -16.1813   -2.0178   54.6860 H       1  ZINC000646817380    0.0600
     31 H31       -15.6221   -4.2465   52.6767 H       1  ZINC000646817380    0.1100
     32 H32       -13.9370   -1.8739   53.5976 H       1  ZINC000646817380    0.0600
     33 H33       -13.4014   -3.1594   52.4890 H       1  ZINC000646817380    0.0600
     34 H34       -14.7011   -2.0462   51.9992 H       1  ZINC000646817380    0.0700
     35 H35       -13.3660   -2.8058   55.5283 H       1  ZINC000646817380    0.1900
     36 H36       -12.9212   -5.4465   58.2370 H       1  ZINC000646817380    0.4300
     37 H37        -9.9451   -3.7603   61.3272 H       1  ZINC000646817380    0.0800
     38 H38        -8.6201   -3.1377   60.3048 H       1  ZINC000646817380    0.0800
     39 H39        -9.8917   -1.6287   62.2664 H       1  ZINC000646817380    0.0900
     40 H40        -9.1037   -0.9116   60.8228 H       1  ZINC000646817380    0.0800
     41 H41       -11.7417    0.9641   58.4605 H       1  ZINC000646817380    0.0700
     42 H42       -13.0066   -0.1195   59.1209 H       1  ZINC000646817380    0.0800
     43 H43       -12.5130    2.8399   59.7651 H       1  ZINC000646817380    0.0700
     44 H44       -14.0577    2.0370   59.3290 H       1  ZINC000646817380    0.0700
     45 H45       -13.5156    2.4928   61.9306 H       1  ZINC000646817380    0.0700
     46 H46       -14.1977    0.9070   61.4510 H       1  ZINC000646817380    0.0700
     47 H47       -13.2699   -0.7556   62.4453 H       1  ZINC000646817380    0.0700
     48 H48       -11.5320   -0.9561   62.7734 H       1  ZINC000646817380    0.0600
     49 H49       -12.5019    0.1595   63.7649 H       1  ZINC000646817380    0.0500
     50 H50       -11.5915    2.3150   63.3429 H       1  ZINC000646817380    0.0600
     51 H51       -10.1819    1.4110   62.7396 H       1  ZINC000646817380    0.0500
     52 H52       -10.8933    2.7114   61.7543 H       1  ZINC000646817380    0.0600
     53 H53       -10.6929   -1.2061   58.5106 H       1  ZINC000646817380    0.0900
     54 H54       -12.2473   -2.0250   58.8543 H       1  ZINC000646817380    0.1000
@<TRIPOS>BOND
     1     1     2    1
     2     1    28    1
     3     1    29    1
     4     1    30    1
     5     2     3    1
     6     2     4    1
     7     2    31    1
     8     3    32    1
     9     3    33    1
    10     3    34    1
    11     4    27    1
    12     4     5    2
    13     5     6    1
    14     5    35    1
    15     6     7    1
    16     6    26    2
    17     7     8   am
    18     7    36    1
    19     8     9    2
    20     8    10    1
    21    10    11    2
    22    10    12   am
    23    12    25    1
    24    12    13    1
    25    13    14    1
    26    13    37    1
    27    13    38    1
    28    14    15    1
    29    14    39    1
    30    14    40    1
    31    15    16    1
    32    15    17    1
    33    15    25    1
    34    17    18    1
    35    17    22    1
    36    17    19    1
    37    19    20    1
    38    19    41    1
    39    19    42    1
    40    20    21    1
    41    20    43    1
    42    20    44    1
    43    21    22    1
    44    21    45    1
    45    21    46    1
    46    22    23    1
    47    22    24    1
    48    23    47    1
    49    23    48    1
    50    23    49    1
    51    24    50    1
    52    24    51    1
    53    24    52    1
    54    25    53    1
    55    25    54    1
    56    26    27    1
@<TRIPOS>SUBSTRUCTURE
     1 ZINC000646817380        1 TEMP              0 ****  ****    0 ROOT


##########                                Name:    ZINC000156038173
##########                DOCK_Rotatable_Bonds:                  10
##########                         Heavy_Atoms:                  27
##########                    Molecular_Weight:             396.357
##########                DOCK_Rotatable_Bonds:                  10
##########                       Formal_Charge:         -0.00999981
##########                     HBond_Acceptors:                  10
##########                        HBond_Donors:                   1
##########                         Heavy_Atoms:                  27
##########                          Grid_Score:          -31.974762
##########                     Grid_vdw_energy:          -30.682800
##########                      Grid_es_energy:           -1.291962
##########           Internal_energy_repulsive:           27.891529

@<TRIPOS>MOLECULE
ZINC000156038173
 48 48 1 0 0
SMALL
USER_CHARGES


@<TRIPOS>ATOM
      1 C1        -10.1947    2.5724   58.2262 C.3     1  ZINC000156038173    0.0700
      2 N2         -9.6267    1.5191   57.3812 N.am    1  ZINC000156038173   -0.6300
      3 C3         -9.2120    1.8243   56.0096 C.3     1  ZINC000156038173    0.1500
      4 C4        -10.1937    1.1846   55.0258 C.3     1  ZINC000156038173   -0.1400
      5 C5         -9.4574    0.7751   53.7763 C.2     1  ZINC000156038173    0.4700
      6 O6        -10.0050    0.0815   52.9523 O.2     1  ZINC000156038173   -0.5000
      7 O7         -8.1933    1.1809   53.5787 O.3     1  ZINC000156038173   -0.3500
      8 C8         -7.9003    1.8333   52.3151 C.3     1  ZINC000156038173    0.1200
      9 C9         -7.5441    0.7775   51.2665 C.3     1  ZINC000156038173   -0.1800
     10 C10        -9.1277    2.6196   51.8504 C.3     1  ZINC000156038173   -0.1400
     11 C11        -6.7203    2.7901   52.4967 C.3     1  ZINC000156038173   -0.1800
     12 C12        -9.4855    0.2694   57.8656 C.2     1  ZINC000156038173    0.7100
     13 O13        -9.0126   -0.6044   57.1648 O.2     1  ZINC000156038173   -0.5700
     14 N14        -9.8684   -0.0117   59.1269 N.am    1  ZINC000156038173   -0.7400
     15 C15        -9.7133   -1.3698   59.6540 C.3     1  ZINC000156038173    0.1700
     16 H16        -8.6679   -1.6700   59.5827 H       1  ZINC000156038173    0.1500
     17 C17       -10.5646   -2.3202   58.8521 C.ar    1  ZINC000156038173   -0.1300
     18 C18       -11.6614   -1.8469   58.1568 C.ar    1  ZINC000156038173   -0.0700
     19 C19       -12.4434   -2.7176   57.4207 C.ar    1  ZINC000156038173   -0.1000
     20 C20       -12.1302   -4.0631   57.3786 C.ar    1  ZINC000156038173   -0.1100
     21 C21       -11.0326   -4.5402   58.0738 C.ar    1  ZINC000156038173    0.0700
     22 F22       -10.7257   -5.8553   58.0332 F       1  ZINC000156038173   -0.1200
     23 C23       -10.2449   -3.6661   58.8074 C.ar    1  ZINC000156038173    0.1000
     24 F24        -9.1731   -4.1296   59.4868 F       1  ZINC000156038173   -0.1200
     25 C25       -10.1543   -1.4018   61.1187 C.3     1  ZINC000156038173    0.4500
     26 F26       -11.5128   -1.7286   61.1896 F       1  ZINC000156038173   -0.1700
     27 F27        -9.4071   -2.3616   61.8099 F       1  ZINC000156038173   -0.1600
     28 F28        -9.9465   -0.1445   61.6959 F       1  ZINC000156038173   -0.1700
     29 H29       -11.2769    2.5966   58.0985 H       1  ZINC000156038173    0.0600
     30 H30        -9.9566    2.3687   59.2702 H       1  ZINC000156038173    0.0700
     31 H31        -9.7734    3.5357   57.9387 H       1  ZINC000156038173    0.0800
     32 H32        -9.2042    2.9046   55.8643 H       1  ZINC000156038173    0.1000
     33 H33        -8.2121    1.4270   55.8354 H       1  ZINC000156038173    0.0900
     34 H34       -10.6474    0.3061   55.4846 H       1  ZINC000156038173    0.1100
     35 H35       -10.9720    1.9036   54.7698 H       1  ZINC000156038173    0.1100
     36 H36        -8.3847    0.0958   51.1371 H       1  ZINC000156038173    0.0600
     37 H37        -7.3242    1.2673   50.3179 H       1  ZINC000156038173    0.0700
     38 H38        -6.6697    0.2173   51.5976 H       1  ZINC000156038173    0.0800
     39 H39        -9.3815    3.3718   52.5974 H       1  ZINC000156038173    0.0700
     40 H40        -8.9078    3.1094   50.9018 H       1  ZINC000156038173    0.0800
     41 H41        -9.9684    1.9380   51.7211 H       1  ZINC000156038173    0.0700
     42 H42        -5.8459    2.2299   52.8277 H       1  ZINC000156038173    0.0800
     43 H43        -6.5004    3.2799   51.5481 H       1  ZINC000156038173    0.0700
     44 H44        -6.9741    3.5423   53.2437 H       1  ZINC000156038173    0.0600
     45 H45       -10.2468    0.6851   59.6856 H       1  ZINC000156038173    0.4100
     46 H46       -11.9079   -0.7959   58.1889 H       1  ZINC000156038173    0.1400
     47 H47       -13.3002   -2.3460   56.8784 H       1  ZINC000156038173    0.1500
     48 H48       -12.7421   -4.7422   56.8035 H       1  ZINC000156038173    0.1500
@<TRIPOS>BOND
     1     1     2    1
     2     1    29    1
     3     1    30    1
     4     1    31    1
     5     2     3    1
     6     2    12   am
     7     3     4    1
     8     3    32    1
     9     3    33    1
    10     4     5    1
    11     4    34    1
    12     4    35    1
    13     5     6    2
    14     5     7    1
    15     7     8    1
    16     8     9    1
    17     8    10    1
    18     8    11    1
    19     9    36    1
    20     9    37    1
    21     9    38    1
    22    10    39    1
    23    10    40    1
    24    10    41    1
    25    11    42    1
    26    11    43    1
    27    11    44    1
    28    12    13    2
    29    12    14   am
    30    14    15    1
    31    14    45    1
    32    15    16    1
    33    15    17    1
    34    15    25    1
    35    17    23   ar
    36    17    18   ar
    37    18    19   ar
    38    18    46    1
    39    19    20   ar
    40    19    47    1
    41    20    21   ar
    42    20    48    1
    43    21    22    1
    44    21    23   ar
    45    23    24    1
    46    25    26    1
    47    25    27    1
    48    25    28    1
@<TRIPOS>SUBSTRUCTURE
     1 ZINC000156038173        1 TEMP              0 ****  ****    0 ROOT


##########                                Name:    ZINC000469459940
##########                DOCK_Rotatable_Bonds:                   7
##########                         Heavy_Atoms:                  24
##########                    Molecular_Weight:             414.295
##########                DOCK_Rotatable_Bonds:                   7
##########                       Formal_Charge:          -0.0200002
##########                     HBond_Acceptors:                   6
##########                        HBond_Donors:                   1
##########                         Heavy_Atoms:                  24
##########                          Grid_Score:          -31.945757
##########                     Grid_vdw_energy:          -31.760674
##########                      Grid_es_energy:           -0.185084
##########           Internal_energy_repulsive:            8.549849

@<TRIPOS>MOLECULE
ZINC000469459940
 41 42 1 0 0
SMALL
USER_CHARGES


@<TRIPOS>ATOM
      1 C1        -16.6785   -3.0852   52.2027 C.3     1  ZINC000469459940   -0.1600
      2 C2        -15.9149   -2.4612   53.3725 C.3     1  ZINC000469459940   -0.1200
      3 C3        -14.5031   -3.0480   53.4310 C.3     1  ZINC000469459940   -0.1200
      4 C4        -13.6540   -2.4467   52.3093 C.3     1  ZINC000469459940   -0.6000
      5 S5        -11.9294   -2.9727   52.5080 S.o2    1  ZINC000469459940    2.4900
      6 O6        -11.8462   -4.3888   52.5901 O.2     1  ZINC000469459940   -0.9300
      7 O7        -11.0805   -2.2383   51.6367 O.2     1  ZINC000469459940   -0.9300
      8 C8        -11.4832   -2.4171   54.1196 C.ar    1  ZINC000469459940   -0.6400
      9 C9        -11.0231   -1.1248   54.2996 C.ar    1  ZINC000469459940   -0.0300
     10 C10       -10.6717   -0.6836   55.5586 C.ar    1  ZINC000469459940   -0.0800
     11 C11       -10.7816   -1.5441   56.6522 C.ar    1  ZINC000469459940   -0.0900
     12 C12       -10.4073   -1.0781   58.0042 C.2     1  ZINC000469459940    0.5600
     13 O13        -9.6753   -0.1163   58.1345 O.2     1  ZINC000469459940   -0.5000
     14 N14       -10.8775   -1.7195   59.0922 N.am    1  ZINC000469459940   -0.6700
     15 C15       -10.5233   -1.2785   60.3716 C.ar    1  ZINC000469459940    0.1900
     16 C16        -9.4576   -1.8670   61.0396 C.ar    1  ZINC000469459940   -0.1500
     17 C17        -9.1090   -1.4305   62.3031 C.ar    1  ZINC000469459940   -0.0400
     18 C18        -9.8202   -0.4079   62.9041 C.ar    1  ZINC000469459940   -0.1500
     19 Br19       -9.3395    0.1866   64.6337 Br      1  ZINC000469459940   -0.0200
     20 C20       -10.8845    0.1820   62.2405 C.ar    1  ZINC000469459940    0.1500
     21 F21       -11.5779    1.1807   62.8296 F       1  ZINC000469459940   -0.1200
     22 C22       -11.2333   -0.2476   60.9731 C.ar    1  ZINC000469459940   -0.1500
     23 C23       -11.2469   -2.8466   56.4636 C.ar    1  ZINC000469459940   -0.1100
     24 C24       -11.5998   -3.2735   55.2001 C.ar    1  ZINC000469459940   -0.0300
     25 H25       -16.1560   -2.8685   51.2708 H       1  ZINC000469459940    0.0600
     26 H26       -16.7390   -4.1645   52.3427 H       1  ZINC000469459940    0.0600
     27 H27       -17.6843   -2.6672   52.1609 H       1  ZINC000469459940    0.0600
     28 H28       -15.8543   -1.3820   53.2325 H       1  ZINC000469459940    0.0700
     29 H29       -16.4374   -2.6780   54.3042 H       1  ZINC000469459940    0.0700
     30 H30       -14.0514   -2.8125   54.3947 H       1  ZINC000469459940    0.0800
     31 H31       -14.5539   -4.1298   53.3082 H       1  ZINC000469459940    0.0800
     32 H32       -14.0297   -2.7898   51.3454 H       1  ZINC000469459940    0.1400
     33 H33       -13.7096   -1.3590   52.3546 H       1  ZINC000469459940    0.1400
     34 H34       -10.9386   -0.4600   53.4528 H       1  ZINC000469459940    0.1500
     35 H35       -10.3120    0.3252   55.6978 H       1  ZINC000469459940    0.1500
     36 H36       -11.4615   -2.4870   58.9882 H       1  ZINC000469459940    0.4200
     37 H37        -8.9017   -2.6660   60.5719 H       1  ZINC000469459940    0.1500
     38 H38        -8.2801   -1.8884   62.8223 H       1  ZINC000469459940    0.1500
     39 H39       -12.0624    0.2118   60.4555 H       1  ZINC000469459940    0.1600
     40 H40       -11.3339   -3.5174   57.3054 H       1  ZINC000469459940    0.1400
     41 H41       -11.9600   -4.2809   55.0528 H       1  ZINC000469459940    0.1500
@<TRIPOS>BOND
     1     1     2    1
     2     1    25    1
     3     1    26    1
     4     1    27    1
     5     2     3    1
     6     2    28    1
     7     2    29    1
     8     3     4    1
     9     3    30    1
    10     3    31    1
    11     4     5    1
    12     4    32    1
    13     4    33    1
    14     5     6    2
    15     5     7    2
    16     5     8    1
    17     8    24   ar
    18     8     9   ar
    19     9    10   ar
    20     9    34    1
    21    10    11   ar
    22    10    35    1
    23    11    12    1
    24    11    23   ar
    25    12    13    2
    26    12    14   am
    27    14    15    1
    28    14    36    1
    29    15    22   ar
    30    15    16   ar
    31    16    17   ar
    32    16    37    1
    33    17    18   ar
    34    17    38    1
    35    18    19    1
    36    18    20   ar
    37    20    21    1
    38    20    22   ar
    39    22    39    1
    40    23    24   ar
    41    23    40    1
    42    24    41    1
@<TRIPOS>SUBSTRUCTURE
     1 ZINC000469459940        1 TEMP              0 ****  ****    0 ROOT


##########                                Name:    ZINC000098105561
##########                DOCK_Rotatable_Bonds:                   5
##########                         Heavy_Atoms:                  25
##########                    Molecular_Weight:             368.336
##########                DOCK_Rotatable_Bonds:                   5
##########                       Formal_Charge:         2.98023e-08
##########                     HBond_Acceptors:                   9
##########                        HBond_Donors:                   0
##########                         Heavy_Atoms:                  25
##########                          Grid_Score:          -31.918343
##########                     Grid_vdw_energy:          -30.948147
##########                      Grid_es_energy:           -0.970196
##########           Internal_energy_repulsive:            9.403642

@<TRIPOS>MOLECULE
ZINC000098105561
 36 38 1 0 0
SMALL
USER_CHARGES


@<TRIPOS>ATOM
      1 C1        -15.1058   -2.2223   59.4469 C.3     1  ZINC000098105561   -0.0800
      2 C2        -14.8465   -3.2840   58.4094 C.2     1  ZINC000098105561    0.0900
      3 C3        -15.3580   -4.5144   58.4925 C.2     1  ZINC000098105561   -0.2700
      4 S4        -14.8129   -5.4284   57.0886 S.3     1  ZINC000098105561    0.1600
      5 C5        -13.9482   -4.0658   56.5243 C.2     1  ZINC000098105561    0.2500
      6 N6        -13.1979   -4.0278   55.3573 N.am    1  ZINC000098105561   -0.5200
      7 C7        -13.8310   -4.3223   54.0695 C.3     1  ZINC000098105561    0.0500
      8 C8        -14.3797   -3.0290   53.4635 C.3     1  ZINC000098105561    0.4400
      9 F9        -13.3493   -2.0882   53.3607 F       1  ZINC000098105561   -0.1700
     10 F10       -14.8982   -3.2934   52.1912 F       1  ZINC000098105561   -0.1700
     11 F11       -15.3933   -2.5227   54.2841 F       1  ZINC000098105561   -0.1700
     12 C12       -11.8867   -3.7200   55.4089 C.2     1  ZINC000098105561    0.5800
     13 O13       -11.2298   -3.6868   54.3871 O.2     1  ZINC000098105561   -0.4100
     14 C14       -11.2464   -3.4224   56.7108 C.2     1  ZINC000098105561    0.0800
     15 C15       -10.9258   -4.4557   57.5281 C.2     1  ZINC000098105561   -0.2000
     16 C16       -10.3047   -4.1491   58.8277 C.2     1  ZINC000098105561    0.4200
     17 O17        -9.7867   -5.0114   59.5152 O.2     1  ZINC000098105561   -0.4300
     18 C18       -10.3470   -2.7339   59.2479 C.ar    1  ZINC000098105561   -0.2200
     19 C19       -10.0308   -2.3510   60.5496 C.ar    1  ZINC000098105561   -0.0300
     20 C20       -10.0898   -1.0192   60.8983 C.ar    1  ZINC000098105561   -0.1400
     21 C21       -10.4622   -0.0672   59.9599 C.ar    1  ZINC000098105561   -0.0500
     22 C22       -10.7751   -0.4335   58.6687 C.ar    1  ZINC000098105561   -0.1400
     23 C23       -10.7189   -1.7715   58.2926 C.ar    1  ZINC000098105561    0.1400
     24 O24       -11.0034   -2.1436   57.0289 O.3     1  ZINC000098105561   -0.2300
     25 N25       -14.1000   -3.0712   57.3425 N.2     1  ZINC000098105561   -0.4600
     26 H26       -15.9996   -1.6602   59.1761 H       1  ZINC000098105561    0.0800
     27 H27       -15.2532   -2.6926   60.4191 H       1  ZINC000098105561    0.0800
     28 H28       -14.2524   -1.5461   59.4960 H       1  ZINC000098105561    0.0800
     29 H29       -15.9944   -4.8847   59.2826 H       1  ZINC000098105561    0.1900
     30 H30       -13.0945   -4.7564   53.3933 H       1  ZINC000098105561    0.1700
     31 H31       -14.6477   -5.0285   54.2191 H       1  ZINC000098105561    0.1400
     32 H32       -11.1210   -5.4764   57.2340 H       1  ZINC000098105561    0.1800
     33 H33        -9.7420   -3.0923   61.2799 H       1  ZINC000098105561    0.1400
     34 H34        -9.8456   -0.7152   61.9056 H       1  ZINC000098105561    0.1400
     35 H35       -10.5080    0.9735   60.2450 H       1  ZINC000098105561    0.1400
     36 H36       -11.0635    0.3181   57.9488 H       1  ZINC000098105561    0.1400
@<TRIPOS>BOND
     1     1     2    1
     2     1    26    1
     3     1    27    1
     4     1    28    1
     5     2    25    1
     6     2     3    2
     7     3     4    1
     8     3    29    1
     9     4     5    1
    10     5     6    1
    11     5    25    2
    12     6     7    1
    13     6    12   am
    14     7     8    1
    15     7    30    1
    16     7    31    1
    17     8     9    1
    18     8    10    1
    19     8    11    1
    20    12    13    2
    21    12    14    1
    22    14    24    1
    23    14    15    2
    24    15    16    1
    25    15    32    1
    26    16    17    2
    27    16    18    1
    28    18    23   ar
    29    18    19   ar
    30    19    20   ar
    31    19    33    1
    32    20    21   ar
    33    20    34    1
    34    21    22   ar
    35    21    35    1
    36    22    23   ar
    37    22    36    1
    38    23    24    1
@<TRIPOS>SUBSTRUCTURE
     1 ZINC000098105561        1 TEMP              0 ****  ****    0 ROOT


##########                                Name:    ZINC000464867530
##########                DOCK_Rotatable_Bonds:                   8
##########                         Heavy_Atoms:                  30
##########                    Molecular_Weight:              422.49
##########                DOCK_Rotatable_Bonds:                   8
##########                       Formal_Charge:         -0.00999994
##########                     HBond_Acceptors:                   7
##########                        HBond_Donors:                   0
##########                         Heavy_Atoms:                  30
##########                          Grid_Score:          -31.896069
##########                     Grid_vdw_energy:          -30.743336
##########                      Grid_es_energy:           -1.152733
##########           Internal_energy_repulsive:           34.183300

@<TRIPOS>MOLECULE
ZINC000464867530
 59 62 1 0 0
SMALL
USER_CHARGES


@<TRIPOS>ATOM
      1 C1        -11.9403   -2.3631   51.9558 C.3     1  ZINC000464867530   -0.1500
      2 C2        -13.4583   -2.5154   52.0716 C.3     1  ZINC000464867530   -0.1400
      3 C3        -14.0400   -1.2958   52.7893 C.3     1  ZINC000464867530    0.0900
      4 N4        -13.5686   -1.2748   54.1763 N.am    1  ZINC000464867530   -0.6100
      5 C5        -14.0259   -2.2970   55.1209 C.3     1  ZINC000464867530    0.0700
      6 C6        -15.3904   -1.8962   55.6853 C.3     1  ZINC000464867530    0.4300
      7 F7        -16.3093   -1.7698   54.6380 F       1  ZINC000464867530   -0.1700
      8 F8        -15.8327   -2.8785   56.5777 F       1  ZINC000464867530   -0.1800
      9 F9        -15.2767   -0.6738   56.3560 F       1  ZINC000464867530   -0.1800
     10 C10       -12.7143   -0.3151   54.5832 C.2     1  ZINC000464867530    0.5300
     11 O11       -12.3359    0.5312   53.8011 O.2     1  ZINC000464867530   -0.5100
     12 C12       -12.2294   -0.2933   56.0099 C.3     1  ZINC000464867530   -0.1200
     13 H13       -12.9961   -0.7132   56.6611 H       1  ZINC000464867530    0.1000
     14 C14       -11.9380    1.1495   56.4284 C.3     1  ZINC000464867530   -0.1200
     15 C15       -11.4768    1.1760   57.8874 C.3     1  ZINC000464867530   -0.1300
     16 C16       -10.1862    0.3625   58.0257 C.3     1  ZINC000464867530    0.1000
     17 N17       -10.4176   -0.9861   57.4904 N.am    1  ZINC000464867530   -0.6100
     18 C18       -10.1492   -2.0763   58.2360 C.2     1  ZINC000464867530    0.5500
     19 O19       -10.3432   -3.1841   57.7822 O.2     1  ZINC000464867530   -0.5300
     20 C20        -9.6080   -1.9187   59.6336 C.3     1  ZINC000464867530   -0.1700
     21 H21        -8.8050   -1.1904   59.7477 H       1  ZINC000464867530    0.1300
     22 C22        -9.5620   -3.1669   60.5193 C.3     1  ZINC000464867530   -0.1300
     23 C23       -10.5889   -2.0722   60.7900 C.3     1  ZINC000464867530   -0.0600
     24 C24       -12.0875   -2.3052   60.5360 C.3     1  ZINC000464867530   -0.0900
     25 C25       -12.7269   -1.0576   61.1849 C.3     1  ZINC000464867530   -0.0800
     26 C26       -11.7427   -0.6127   62.2461 C.ar    1  ZINC000464867530   -0.0900
     27 C27       -11.9118    0.2360   63.3265 C.ar    1  ZINC000464867530   -0.1100
     28 C28       -10.8546    0.5022   64.1749 C.ar    1  ZINC000464867530   -0.1100
     29 C29        -9.6226   -0.0805   63.9448 C.ar    1  ZINC000464867530   -0.1200
     30 C30        -9.4512   -0.9280   62.8675 C.ar    1  ZINC000464867530   -0.1000
     31 C31       -10.5091   -1.1970   62.0158 C.ar    1  ZINC000464867530   -0.0700
     32 C32       -10.9478   -1.1242   56.1271 C.3     1  ZINC000464867530    0.1300
     33 H33       -11.7078   -1.4622   51.3880 H       1  ZINC000464867530    0.0600
     34 H34       -11.5058   -2.2867   52.9525 H       1  ZINC000464867530    0.0600
     35 H35       -11.5260   -3.2320   51.4445 H       1  ZINC000464867530    0.0600
     36 H36       -13.8929   -2.5918   51.0749 H       1  ZINC000464867530    0.0700
     37 H37       -13.6909   -3.4163   52.6394 H       1  ZINC000464867530    0.0700
     38 H38       -13.7164   -0.3871   52.2818 H       1  ZINC000464867530    0.0900
     39 H39       -15.1285   -1.3513   52.7763 H       1  ZINC000464867530    0.0900
     40 H40       -14.1123   -3.2542   54.6066 H       1  ZINC000464867530    0.1300
     41 H41       -13.3076   -2.3860   55.9359 H       1  ZINC000464867530    0.1200
     42 H42       -11.1542    1.5610   55.7924 H       1  ZINC000464867530    0.0800
     43 H43       -12.8428    1.7482   56.3226 H       1  ZINC000464867530    0.0800
     44 H44       -11.2919    2.2062   58.1918 H       1  ZINC000464867530    0.0900
     45 H45       -12.2501    0.7421   58.5214 H       1  ZINC000464867530    0.0700
     46 H46        -9.3872    0.8464   57.4640 H       1  ZINC000464867530    0.0700
     47 H47        -9.9075    0.2953   59.0773 H       1  ZINC000464867530    0.0900
     48 H48        -9.9232   -4.1019   60.0909 H       1  ZINC000464867530    0.1100
     49 H49        -8.7292   -3.2593   61.2164 H       1  ZINC000464867530    0.1100
     50 H50       -12.2994   -2.3384   59.4672 H       1  ZINC000464867530    0.0700
     51 H51       -12.4276   -3.2162   61.0285 H       1  ZINC000464867530    0.0800
     52 H52       -12.8620   -0.2721   60.4415 H       1  ZINC000464867530    0.0800
     53 H53       -13.6827   -1.3164   61.6406 H       1  ZINC000464867530    0.0800
     54 H54       -12.8740    0.6921   63.5067 H       1  ZINC000464867530    0.1200
     55 H55       -10.9905    1.1651   65.0166 H       1  ZINC000464867530    0.1300
     56 H56        -8.7946    0.1267   64.6065 H       1  ZINC000464867530    0.1300
     57 H57        -8.4878   -1.3823   62.6888 H       1  ZINC000464867530    0.1200
     58 H58       -11.1710   -2.1721   55.9262 H       1  ZINC000464867530    0.1000
     59 H59       -10.2112   -0.7616   55.4100 H       1  ZINC000464867530    0.0800
@<TRIPOS>BOND
     1     1     2    1
     2     1    33    1
     3     1    34    1
     4     1    35    1
     5     2     3    1
     6     2    36    1
     7     2    37    1
     8     3     4    1
     9     3    38    1
    10     3    39    1
    11     4     5    1
    12     4    10   am
    13     5     6    1
    14     5    40    1
    15     5    41    1
    16     6     7    1
    17     6     8    1
    18     6     9    1
    19    10    11    2
    20    10    12    1
    21    12    13    1
    22    12    32    1
    23    12    14    1
    24    14    15    1
    25    14    42    1
    26    14    43    1
    27    15    16    1
    28    15    44    1
    29    15    45    1
    30    16    17    1
    31    16    46    1
    32    16    47    1
    33    17    18   am
    34    17    32    1
    35    18    19    2
    36    18    20    1
    37    20    21    1
    38    20    23    1
    39    20    22    1
    40    22    23    1
    41    22    48    1
    42    22    49    1
    43    23    31    1
    44    23    24    1
    45    24    25    1
    46    24    50    1
    47    24    51    1
    48    25    26    1
    49    25    52    1
    50    25    53    1
    51    26    31   ar
    52    26    27   ar
    53    27    28   ar
    54    27    54    1
    55    28    29   ar
    56    28    55    1
    57    29    30   ar
    58    29    56    1
    59    30    31   ar
    60    30    57    1
    61    32    58    1
    62    32    59    1
@<TRIPOS>SUBSTRUCTURE
     1 ZINC000464867530        1 TEMP              0 ****  ****    0 ROOT


##########                                Name:    ZINC000971513996
##########                DOCK_Rotatable_Bonds:                   6
##########                         Heavy_Atoms:                  27
##########                    Molecular_Weight:             369.464
##########                DOCK_Rotatable_Bonds:                   6
##########                       Formal_Charge:          -0.0300002
##########                     HBond_Acceptors:                   6
##########                        HBond_Donors:                   1
##########                         Heavy_Atoms:                  27
##########                          Grid_Score:          -31.868694
##########                     Grid_vdw_energy:          -31.082954
##########                      Grid_es_energy:           -0.785739
##########           Internal_energy_repulsive:           14.901395

@<TRIPOS>MOLECULE
ZINC000971513996
 54 57 1 0 0
SMALL
USER_CHARGES


@<TRIPOS>ATOM
      1 C1        -14.1555    1.5327   60.5867 C.3     1  ZINC000971513996   -0.1600
      2 C2        -14.8691    0.2459   60.1674 C.3     1  ZINC000971513996   -0.1400
      3 C3        -13.9751   -0.9568   60.4761 C.3     1  ZINC000971513996    0.0800
      4 H4        -13.4598   -0.7930   61.4225 H       1  ZINC000971513996    0.0800
      5 O5        -14.7776   -2.1356   60.5684 O.3     1  ZINC000971513996   -0.3600
      6 C6        -14.3274   -3.0697   61.5518 C.3     1  ZINC000971513996    0.0200
      7 C7        -12.9608   -1.1246   59.3743 C.2     1  ZINC000971513996    0.5400
      8 O8        -13.3290   -1.2707   58.2281 O.2     1  ZINC000971513996   -0.5100
      9 N9        -11.6443   -1.1123   59.6627 N.am    1  ZINC000971513996   -0.6400
     10 C10       -10.8161   -0.9669   60.8719 C.3     1  ZINC000971513996    0.1000
     11 C11        -9.7498   -1.8270   60.1667 C.3     1  ZINC000971513996   -0.1200
     12 H12        -8.7189   -1.5196   60.3424 H       1  ZINC000971513996    0.1100
     13 C13        -9.9974   -3.3203   60.3939 C.3     1  ZINC000971513996   -0.1200
     14 C14        -9.6565   -4.0882   59.1133 C.3     1  ZINC000971513996    0.1100
     15 N15       -10.4903   -3.5641   58.0283 N.am    1  ZINC000971513996   -0.6000
     16 C16       -11.2857   -4.4007   57.3326 C.2     1  ZINC000971513996    0.5900
     17 O17       -11.3096   -5.5857   57.6065 O.2     1  ZINC000971513996   -0.5200
     18 C18       -12.1249   -3.8810   56.2425 C.2     1  ZINC000971513996    0.0200
     19 C19       -11.7172   -3.6797   54.9622 C.2     1  ZINC000971513996   -0.1000
     20 C20       -12.8204   -3.1735   54.2329 C.ar    1  ZINC000971513996   -0.1100
     21 C21       -12.9956   -2.7876   52.8980 C.ar    1  ZINC000971513996   -0.0600
     22 C22       -14.2096   -2.3265   52.4785 C.ar    1  ZINC000971513996   -0.1200
     23 C23       -14.3948   -1.9120   51.0414 C.3     1  ZINC000971513996   -0.1100
     24 C24       -15.2764   -2.2362   53.3634 C.ar    1  ZINC000971513996   -0.0800
     25 C25       -15.1292   -2.6095   54.6807 C.ar    1  ZINC000971513996   -0.1300
     26 C26       -13.9007   -3.0825   55.1328 C.ar    1  ZINC000971513996    0.1100
     27 N27       -13.4551   -3.5256   56.3556 N.pl3   1  ZINC000971513996   -0.5800
     28 C28       -10.4667   -2.1458   57.6957 C.3     1  ZINC000971513996    0.0700
     29 C29       -10.3910   -1.2439   58.9162 C.3     1  ZINC000971513996    0.1300
     30 H30        -9.9747   -0.2692   58.6619 H       1  ZINC000971513996    0.1100
     31 H31       -14.7453    2.3940   60.2730 H       1  ZINC000971513996    0.0600
     32 H32       -14.0393    1.5473   61.6704 H       1  ZINC000971513996    0.0600
     33 H33       -13.1735    1.5737   60.1154 H       1  ZINC000971513996    0.0600
     34 H34       -15.8052    0.1536   60.7182 H       1  ZINC000971513996    0.0800
     35 H35       -15.0783    0.2782   59.0982 H       1  ZINC000971513996    0.0800
     36 H36       -13.3535   -3.4630   61.2603 H       1  ZINC000971513996    0.0400
     37 H37       -14.2432   -2.5693   62.5164 H       1  ZINC000971513996    0.0500
     38 H38       -15.0421   -3.8891   61.6285 H       1  ZINC000971513996    0.0900
     39 H39       -10.4947    0.0578   61.0587 H       1  ZINC000971513996    0.0900
     40 H40       -11.2456   -1.4428   61.7535 H       1  ZINC000971513996    0.0800
     41 H41        -9.3666   -3.6741   61.2094 H       1  ZINC000971513996    0.0900
     42 H42       -11.0454   -3.4813   60.6468 H       1  ZINC000971513996    0.0700
     43 H43        -8.6037   -3.9466   58.8691 H       1  ZINC000971513996    0.0800
     44 H44        -9.8620   -5.1492   59.2553 H       1  ZINC000971513996    0.1000
     45 H45       -10.7290   -3.8713   54.5709 H       1  ZINC000971513996    0.1500
     46 H46       -12.1721   -2.8543   52.2026 H       1  ZINC000971513996    0.1200
     47 H47       -14.7205   -2.7710   50.4546 H       1  ZINC000971513996    0.0700
     48 H48       -15.1479   -1.1261   50.9841 H       1  ZINC000971513996    0.0600
     49 H49       -13.4498   -1.5393   50.6461 H       1  ZINC000971513996    0.0600
     50 H50       -16.2305   -1.8692   53.0151 H       1  ZINC000971513996    0.1300
     51 H51       -15.9645   -2.5352   55.3613 H       1  ZINC000971513996    0.1200
     52 H52       -13.9870   -3.5788   57.1650 H       1  ZINC000971513996    0.4200
     53 H53        -9.5956   -1.9460   57.0716 H       1  ZINC000971513996    0.0800
     54 H54       -11.3653   -1.9032   57.1284 H       1  ZINC000971513996    0.1200
@<TRIPOS>BOND
     1     1     2    1
     2     1    31    1
     3     1    32    1
     4     1    33    1
     5     2     3    1
     6     2    34    1
     7     2    35    1
     8     3     4    1
     9     3     5    1
    10     3     7    1
    11     5     6    1
    12     6    36    1
    13     6    37    1
    14     6    38    1
    15     7     8    2
    16     7     9   am
    17     9    29    1
    18     9    10    1
    19    10    11    1
    20    10    39    1
    21    10    40    1
    22    11    12    1
    23    11    29    1
    24    11    13    1
    25    13    14    1
    26    13    41    1
    27    13    42    1
    28    14    15    1
    29    14    43    1
    30    14    44    1
    31    15    16   am
    32    15    28    1
    33    16    17    2
    34    16    18    1
    35    18    27    1
    36    18    19    2
    37    19    20    1
    38    19    45    1
    39    20    26   ar
    40    20    21   ar
    41    21    22   ar
    42    21    46    1
    43    22    23    1
    44    22    24   ar
    45    23    47    1
    46    23    48    1
    47    23    49    1
    48    24    25   ar
    49    24    50    1
    50    25    26   ar
    51    25    51    1
    52    26    27    1
    53    27    52    1
    54    28    29    1
    55    28    53    1
    56    28    54    1
    57    29    30    1
@<TRIPOS>SUBSTRUCTURE
     1 ZINC000971513996        1 TEMP              0 ****  ****    0 ROOT


##########                                Name:    ZINC000986832075
##########                DOCK_Rotatable_Bonds:                   7
##########                         Heavy_Atoms:                  25
##########                    Molecular_Weight:             347.433
##########                DOCK_Rotatable_Bonds:                   7
##########                       Formal_Charge:          -0.0200006
##########                     HBond_Acceptors:                   6
##########                        HBond_Donors:                   1
##########                         Heavy_Atoms:                  25
##########                          Grid_Score:          -31.852337
##########                     Grid_vdw_energy:          -31.782480
##########                      Grid_es_energy:           -0.069857
##########           Internal_energy_repulsive:           30.658129

@<TRIPOS>MOLECULE
ZINC000986832075
 51 53 1 0 0
SMALL
USER_CHARGES


@<TRIPOS>ATOM
      1 C1        -13.5131   -1.4861   52.7836 C.3     1  ZINC000986832075   -0.1700
      2 C2        -12.2361   -2.1160   53.3436 C.3     1  ZINC000986832075    0.1500
      3 H3        -11.9533   -2.9709   52.7296 H       1  ZINC000986832075    0.0900
      4 N4        -11.1564   -1.1259   53.3293 N.am    1  ZINC000986832075   -0.7200
      5 C5        -10.2222   -1.1617   52.3585 C.2     1  ZINC000986832075    0.5600
      6 O6        -10.2762   -2.0143   51.4942 O.2     1  ZINC000986832075   -0.5100
      7 C7         -9.1304   -0.1626   52.3451 C.ar    1  ZINC000986832075   -0.1300
      8 C8         -9.2557    1.0489   53.0327 C.ar    1  ZINC000986832075   -0.1100
      9 C9         -8.2124    1.9527   52.9935 C.ar    1  ZINC000986832075    0.0900
     10 N10        -7.1101    1.6879   52.3206 N.ar    1  ZINC000986832075   -0.4400
     11 C11        -6.9479    0.5605   51.6585 C.ar    1  ZINC000986832075    0.0700
     12 C12        -7.9399   -0.4060   51.6481 C.ar    1  ZINC000986832075    0.1100
     13 F13        -7.7668   -1.5598   50.9670 F       1  ZINC000986832075   -0.1000
     14 C14       -12.4838   -2.5797   54.7804 C.3     1  ZINC000986832075   -0.1000
     15 C15       -11.7086   -3.8736   55.0393 C.3     1  ZINC000986832075   -0.1300
     16 C16       -11.9863   -4.3536   56.4674 C.3     1  ZINC000986832075    0.1100
     17 N17       -11.6716   -3.2644   57.4018 N.am    1  ZINC000986832075   -0.6100
     18 C18       -10.8281   -3.4668   58.4334 C.2     1  ZINC000986832075    0.5200
     19 O19       -10.3209   -4.5561   58.5972 O.2     1  ZINC000986832075   -0.5300
     20 C20       -10.5153   -2.3394   59.3832 C.3     1  ZINC000986832075   -0.0800
     21 H21       -10.2778   -1.4404   58.8145 H       1  ZINC000986832075    0.0900
     22 C22        -9.3171   -2.7236   60.2537 C.3     1  ZINC000986832075   -0.1400
     23 C23       -11.7292   -2.0726   60.2755 C.3     1  ZINC000986832075   -0.1400
     24 C24       -11.5588   -1.0705   61.4191 C.3     1  ZINC000986832075   -0.1800
     25 C25       -12.3817   -0.6916   60.1861 C.3     1  ZINC000986832075   -0.1700
     26 C26       -12.2935   -1.9502   57.1901 C.3     1  ZINC000986832075    0.1000
     27 C27       -12.0124   -1.4972   55.7540 C.3     1  ZINC000986832075   -0.1300
     28 H28       -13.3366   -1.1558   51.7600 H       1  ZINC000986832075    0.0600
     29 H29       -14.3164   -2.2227   52.7943 H       1  ZINC000986832075    0.0700
     30 H30       -13.7960   -0.6311   53.3977 H       1  ZINC000986832075    0.0600
     31 H31       -11.1139   -0.4446   54.0185 H       1  ZINC000986832075    0.4000
     32 H32       -10.1554    1.2742   53.5860 H       1  ZINC000986832075    0.1500
     33 H33        -8.3009    2.8905   53.5218 H       1  ZINC000986832075    0.1700
     34 H34        -6.0279    0.3860   51.1204 H       1  ZINC000986832075    0.1800
     35 H35       -13.5490   -2.7596   54.9255 H       1  ZINC000986832075    0.0800
     36 H36       -12.0282   -4.6373   54.3302 H       1  ZINC000986832075    0.0700
     37 H37       -10.6412   -3.6886   54.9188 H       1  ZINC000986832075    0.0800
     38 H38       -13.0374   -4.6253   56.5636 H       1  ZINC000986832075    0.0700
     39 H39       -11.3613   -5.2183   56.6903 H       1  ZINC000986832075    0.0900
     40 H40        -9.5206   -3.6700   60.7547 H       1  ZINC000986832075    0.0600
     41 H41        -8.4312   -2.8272   59.6273 H       1  ZINC000986832075    0.0600
     42 H42        -9.1460   -1.9472   60.9995 H       1  ZINC000986832075    0.0700
     43 H43       -12.3826   -2.9278   60.4485 H       1  ZINC000986832075    0.1100
     44 H44       -12.1000   -1.2664   62.3447 H       1  ZINC000986832075    0.1000
     45 H45       -10.5819   -0.6013   61.5358 H       1  ZINC000986832075    0.0900
     46 H46       -11.9462    0.0268   59.4917 H       1  ZINC000986832075    0.0900
     47 H47       -13.4644   -0.6382   60.3007 H       1  ZINC000986832075    0.1000
     48 H48       -13.3697   -2.0259   57.3453 H       1  ZINC000986832075    0.0700
     49 H49       -11.8711   -1.2290   57.8900 H       1  ZINC000986832075    0.0900
     50 H50       -10.9421   -1.3345   55.6267 H       1  ZINC000986832075    0.0800
     51 H51       -12.5483   -0.5694   55.5537 H       1  ZINC000986832075    0.0800
@<TRIPOS>BOND
     1     1     2    1
     2     1    28    1
     3     1    29    1
     4     1    30    1
     5     2     3    1
     6     2     4    1
     7     2    14    1
     8     4     5   am
     9     4    31    1
    10     5     6    2
    11     5     7    1
    12     7    12   ar
    13     7     8   ar
    14     8     9   ar
    15     8    32    1
    16     9    10   ar
    17     9    33    1
    18    10    11   ar
    19    11    12   ar
    20    11    34    1
    21    12    13    1
    22    14    27    1
    23    14    15    1
    24    14    35    1
    25    15    16    1
    26    15    36    1
    27    15    37    1
    28    16    17    1
    29    16    38    1
    30    16    39    1
    31    17    18   am
    32    17    26    1
    33    18    19    2
    34    18    20    1
    35    20    21    1
    36    20    22    1
    37    20    23    1
    38    22    40    1
    39    22    41    1
    40    22    42    1
    41    23    25    1
    42    23    24    1
    43    23    43    1
    44    24    25    1
    45    24    44    1
    46    24    45    1
    47    25    46    1
    48    25    47    1
    49    26    27    1
    50    26    48    1
    51    26    49    1
    52    27    50    1
    53    27    51    1
@<TRIPOS>SUBSTRUCTURE
     1 ZINC000986832075        1 TEMP              0 ****  ****    0 ROOT


##########                                Name:    ZINC000277085192
##########                DOCK_Rotatable_Bonds:                   4
##########                         Heavy_Atoms:                  23
##########                    Molecular_Weight:             335.747
##########                DOCK_Rotatable_Bonds:                   4
##########                       Formal_Charge:         5.96046e-08
##########                     HBond_Acceptors:                   8
##########                        HBond_Donors:                   2
##########                         Heavy_Atoms:                  23
##########                          Grid_Score:          -31.850033
##########                     Grid_vdw_energy:          -30.442900
##########                      Grid_es_energy:           -1.407133
##########           Internal_energy_repulsive:            8.045228

@<TRIPOS>MOLECULE
ZINC000277085192
 37 39 1 0 0
SMALL
USER_CHARGES


@<TRIPOS>ATOM
      1 O1        -11.5015   -0.0137   58.6094 O.2     1  ZINC000277085192   -0.5000
      2 C2        -11.7552   -1.1832   58.4116 C.2     1  ZINC000277085192    0.5000
      3 C3        -12.3817   -1.6083   57.1086 C.3     1  ZINC000277085192    0.1100
      4 N4        -13.0407   -2.9049   57.2837 N.am    1  ZINC000277085192   -0.6000
      5 C5        -14.2820   -2.9853   58.0558 C.3     1  ZINC000277085192    0.1100
      6 C6        -15.2055   -4.0340   57.4317 C.3     1  ZINC000277085192   -0.1600
      7 C7        -14.4127   -5.2842   57.1442 C.2     1  ZINC000277085192    0.5200
      8 O8        -14.9370   -6.3723   57.2489 O.2     1  ZINC000277085192   -0.5000
      9 N9        -13.1233   -5.1914   56.7707 N.am    1  ZINC000277085192   -0.6700
     10 C10       -12.5006   -4.0023   56.7290 C.2     1  ZINC000277085192    0.7200
     11 O11       -11.4177   -3.9186   56.1835 O.2     1  ZINC000277085192   -0.5500
     12 N12       -11.4716   -2.1032   59.3547 N.am    1  ZINC000277085192   -0.6700
     13 C13       -10.8894   -1.7083   60.5653 C.ar    1  ZINC000277085192    0.1400
     14 C14       -11.4764   -0.7109   61.3217 C.ar    1  ZINC000277085192   -0.0400
     15 C15       -10.8931   -0.3143   62.5351 C.ar    1  ZINC000277085192   -0.1700
     16 C16        -9.7205   -0.9350   62.9671 C.ar    1  ZINC000277085192   -0.0500
     17 C17        -9.1431   -1.9313   62.2025 C.ar    1  ZINC000277085192   -0.0900
     18 C18        -9.7230   -2.3237   61.0100 C.ar    1  ZINC000277085192   -0.0300
     19 Cl19       -8.9874   -3.5762   60.0594 Cl      1  ZINC000277085192   -0.0500
     20 C20        -9.2909   -0.3418   64.2877 C.3     1  ZINC000277085192   -0.0800
     21 C21       -10.3332    0.7289   64.6386 C.3     1  ZINC000277085192   -0.1700
     22 C22       -11.3250    0.7088   63.5011 C.2     1  ZINC000277085192    0.4100
     23 O23       -12.3072    1.4129   63.4006 O.2     1  ZINC000277085192   -0.4300
     24 H24       -13.1173   -0.8656   56.7997 H       1  ZINC000277085192    0.1300
     25 H25       -11.6089   -1.6937   56.3447 H       1  ZINC000277085192    0.1200
     26 H26       -14.0529   -3.2685   59.0832 H       1  ZINC000277085192    0.0800
     27 H27       -14.7776   -2.0145   58.0488 H       1  ZINC000277085192    0.1000
     28 H28       -16.0136   -4.2666   58.1252 H       1  ZINC000277085192    0.1300
     29 H29       -15.6224   -3.6454   56.5026 H       1  ZINC000277085192    0.1200
     30 H30       -12.6381   -5.9945   56.5249 H       1  ZINC000277085192    0.4300
     31 H31       -11.6709   -3.0389   59.1949 H       1  ZINC000277085192    0.4200
     32 H32       -12.3840   -0.2366   60.9786 H       1  ZINC000277085192    0.1500
     33 H33        -8.2354   -2.4090   62.5404 H       1  ZINC000277085192    0.1500
     34 H34        -9.2737   -1.1138   65.0570 H       1  ZINC000277085192    0.1000
     35 H35        -8.3051    0.1129   64.1908 H       1  ZINC000277085192    0.1000
     36 H36       -10.8293    0.4797   65.5767 H       1  ZINC000277085192    0.1100
     37 H37        -9.8595    1.7080   64.7095 H       1  ZINC000277085192    0.1100
@<TRIPOS>BOND
     1     1     2    2
     2     2     3    1
     3     2    12   am
     4     3     4    1
     5     3    24    1
     6     3    25    1
     7     4    10   am
     8     4     5    1
     9     5     6    1
    10     5    26    1
    11     5    27    1
    12     6     7    1
    13     6    28    1
    14     6    29    1
    15     7     8    2
    16     7     9   am
    17     9    10   am
    18     9    30    1
    19    10    11    2
    20    12    13    1
    21    12    31    1
    22    13    18   ar
    23    13    14   ar
    24    14    15   ar
    25    14    32    1
    26    15    22    1
    27    15    16   ar
    28    16    17   ar
    29    16    20    1
    30    17    18   ar
    31    17    33    1
    32    18    19    1
    33    20    21    1
    34    20    34    1
    35    20    35    1
    36    21    22    1
    37    21    36    1
    38    21    37    1
    39    22    23    2
@<TRIPOS>SUBSTRUCTURE
     1 ZINC000277085192        1 TEMP              0 ****  ****    0 ROOT


##########                                Name:    ZINC000279593480
##########                DOCK_Rotatable_Bonds:                   9
##########                         Heavy_Atoms:                  23
##########                    Molecular_Weight:              340.85
##########                DOCK_Rotatable_Bonds:                   9
##########                       Formal_Charge:          -0.0500002
##########                     HBond_Acceptors:                   6
##########                        HBond_Donors:                   3
##########                         Heavy_Atoms:                  23
##########                          Grid_Score:          -31.830154
##########                     Grid_vdw_energy:          -30.947596
##########                      Grid_es_energy:           -0.882558
##########           Internal_energy_repulsive:           14.669208

@<TRIPOS>MOLECULE
ZINC000279593480
 48 49 1 0 0
SMALL
USER_CHARGES


@<TRIPOS>ATOM
      1 C1         -5.6211    1.0854   50.6654 C.3     1  ZINC000279593480   -0.1400
      2 C2         -5.3159    2.2448   51.6160 C.3     1  ZINC000279593480   -0.1400
      3 C3         -3.8769    2.7170   51.3990 C.3     1  ZINC000279593480    0.1700
      4 H4         -3.1862    1.9388   51.7239 H       1  ZINC000279593480    0.0900
      5 C5         -3.6299    3.9897   52.2113 C.3     1  ZINC000279593480   -0.0900
      6 C6         -3.8000    3.6903   53.6785 C.ar    1  ZINC000279593480   -0.0800
      7 C7         -5.0372    3.8437   54.2760 C.ar    1  ZINC000279593480   -0.1000
      8 C8         -5.1939    3.5691   55.6215 C.ar    1  ZINC000279593480   -0.1100
      9 C9         -4.1123    3.1408   56.3704 C.ar    1  ZINC000279593480   -0.0400
     10 Cl10       -4.3085    2.7953   58.0603 Cl      1  ZINC000279593480   -0.0700
     11 C11        -2.8745    2.9875   55.7718 C.ar    1  ZINC000279593480   -0.1100
     12 C12        -2.7202    3.2569   54.4250 C.ar    1  ZINC000279593480   -0.1000
     13 N13        -3.6638    2.9963   49.9767 N.am    1  ZINC000279593480   -0.7400
     14 C14        -2.7818    2.2617   49.2704 C.2     1  ZINC000279593480    0.7100
     15 O15        -2.1641    1.3661   49.8134 O.2     1  ZINC000279593480   -0.5800
     16 N16        -2.5846    2.5197   47.9624 N.am    1  ZINC000279593480   -0.7500
     17 C17        -1.6272    1.7200   47.1943 C.3     1  ZINC000279593480    0.1200
     18 C18        -1.9267    1.8619   45.7006 C.3     1  ZINC000279593480    0.0900
     19 O19        -3.3348    1.7988   45.4653 O.3     1  ZINC000279593480   -0.5400
     20 C20        -1.3422    3.1837   45.1544 C.3     1  ZINC000279593480   -0.1900
     21 C21        -0.3252    2.7304   44.0836 C.3     1  ZINC000279593480    0.0500
     22 O22        -0.7771    1.4203   43.6767 O.3     1  ZINC000279593480   -0.3600
     23 C23        -1.1937    0.7662   44.8952 C.3     1  ZINC000279593480    0.0900
     24 H24        -0.3263    0.4052   45.4478 H       1  ZINC000279593480    0.0800
     25 C25        -2.1430   -0.3917   44.5803 C.3     1  ZINC000279593480   -0.1400
     26 H26        -4.9347    0.2623   50.8641 H       1  ZINC000279593480    0.0600
     27 H27        -6.6462    0.7491   50.8199 H       1  ZINC000279593480    0.0400
     28 H28        -5.4996    1.4190   49.6348 H       1  ZINC000279593480    0.0600
     29 H29        -6.0022    3.0679   51.4172 H       1  ZINC000279593480    0.0600
     30 H30        -5.4374    1.9112   52.6466 H       1  ZINC000279593480    0.0700
     31 H31        -2.6163    4.3465   52.0285 H       1  ZINC000279593480    0.0800
     32 H32        -4.3445    4.7563   51.9117 H       1  ZINC000279593480    0.0900
     33 H33        -5.8814    4.1784   53.6913 H       1  ZINC000279593480    0.1300
     34 H34        -6.1604    3.6893   56.0883 H       1  ZINC000279593480    0.1300
     35 H35        -2.0297    2.6534   56.3559 H       1  ZINC000279593480    0.1300
     36 H36        -1.7541    3.1369   53.9575 H       1  ZINC000279593480    0.1300
     37 H37        -4.1574    3.7101   49.5434 H       1  ZINC000279593480    0.3900
     38 H38        -3.0765    3.2350   47.5296 H       1  ZINC000279593480    0.3900
     39 H39        -0.6154    2.0710   47.3970 H       1  ZINC000279593480    0.0800
     40 H40        -1.7133    0.6727   47.4842 H       1  ZINC000279593480    0.0800
     41 H41        -3.7777    2.6578   45.4971 H       1  ZINC000279593480    0.3700
     42 H42        -2.1270    3.7906   44.7031 H       1  ZINC000279593480    0.0900
     43 H43        -0.8399    3.7362   45.9485 H       1  ZINC000279593480    0.0900
     44 H44        -0.3359    3.4155   43.2359 H       1  ZINC000279593480    0.1000
     45 H45         0.6754    2.6706   44.5117 H       1  ZINC000279593480    0.0600
     46 H46        -1.6260   -1.1286   43.9657 H       1  ZINC000279593480    0.0600
     47 H47        -2.4682   -0.8580   45.5103 H       1  ZINC000279593480    0.0700
     48 H48        -3.0111   -0.0133   44.0406 H       1  ZINC000279593480    0.0700
@<TRIPOS>BOND
     1     1     2    1
     2     1    26    1
     3     1    27    1
     4     1    28    1
     5     2     3    1
     6     2    29    1
     7     2    30    1
     8     3     4    1
     9     3     5    1
    10     3    13    1
    11     5     6    1
    12     5    31    1
    13     5    32    1
    14     6    12   ar
    15     6     7   ar
    16     7     8   ar
    17     7    33    1
    18     8     9   ar
    19     8    34    1
    20     9    10    1
    21     9    11   ar
    22    11    12   ar
    23    11    35    1
    24    12    36    1
    25    13    14   am
    26    13    37    1
    27    14    15    2
    28    14    16   am
    29    16    17    1
    30    16    38    1
    31    17    18    1
    32    17    39    1
    33    17    40    1
    34    18    23    1
    35    18    19    1
    36    18    20    1
    37    19    41    1
    38    20    21    1
    39    20    42    1
    40    20    43    1
    41    21    22    1
    42    21    44    1
    43    21    45    1
    44    22    23    1
    45    23    24    1
    46    23    25    1
    47    25    46    1
    48    25    47    1
    49    25    48    1
@<TRIPOS>SUBSTRUCTURE
     1 ZINC000279593480        1 TEMP              0 ****  ****    0 ROOT


##########                                Name:    ZINC001199210165
##########                DOCK_Rotatable_Bonds:                   5
##########                         Heavy_Atoms:                  23
##########                    Molecular_Weight:             375.225
##########                DOCK_Rotatable_Bonds:                   5
##########                       Formal_Charge:         -0.00999999
##########                     HBond_Acceptors:                   6
##########                        HBond_Donors:                   2
##########                         Heavy_Atoms:                  23
##########                          Grid_Score:          -31.809488
##########                     Grid_vdw_energy:          -31.139423
##########                      Grid_es_energy:           -0.670065
##########           Internal_energy_repulsive:            7.017004

@<TRIPOS>MOLECULE
ZINC001199210165
 38 40 1 0 0
SMALL
USER_CHARGES


@<TRIPOS>ATOM
      1 C1        -13.1030   -3.9209   53.7322 C.3     1  ZINC001199210165   -0.1700
      2 C2        -11.6097   -3.5879   53.7240 C.3     1  ZINC001199210165    0.0800
      3 C3        -11.2157   -3.0450   52.3490 C.3     1  ZINC001199210165   -0.1500
      4 O4        -11.3360   -2.6020   54.7217 O.3     1  ZINC001199210165   -0.3000
      5 C5        -11.1922   -3.0403   55.9977 C.ar    1  ZINC001199210165    0.3300
      6 C6        -11.0966   -2.1199   57.0328 C.ar    1  ZINC001199210165   -0.1300
      7 C7        -10.9489   -2.5864   58.3405 C.ar    1  ZINC001199210165   -0.0600
      8 C8        -10.8434   -1.6427   59.4773 C.2     1  ZINC001199210165    0.5700
      9 O9        -10.6953   -0.4546   59.2690 O.2     1  ZINC001199210165   -0.4900
     10 N10       -10.9114   -2.1016   60.7427 N.am    1  ZINC001199210165   -0.6600
     11 C11       -10.8117   -1.2109   61.8157 C.ar    1  ZINC001199210165    0.2000
     12 C12       -11.9194   -0.4471   62.1868 C.ar    1  ZINC001199210165   -0.1500
     13 C13       -11.8409    0.4263   63.2307 C.ar    1  ZINC001199210165   -0.0200
     14 C14       -10.6412    0.5607   63.9385 C.ar    1  ZINC001199210165   -0.1700
     15 C15       -10.2225    1.3781   65.0737 C.2     1  ZINC001199210165    0.0900
     16 Br16      -11.2987    2.6190   66.0105 Br      1  ZINC001199210165    0.0600
     17 N17        -8.9751    1.0994   65.3263 N.2     1  ZINC001199210165   -0.2100
     18 N18        -8.5070    0.1342   64.4287 N.pl3   1  ZINC001199210165   -0.4900
     19 C19        -9.5192   -0.2071   63.5694 C.ar    1  ZINC001199210165    0.1500
     20 C20        -9.6182   -1.0975   62.5048 C.ar    1  ZINC001199210165   -0.1700
     21 C21       -10.9038   -3.9696   58.5484 C.ar    1  ZINC001199210165   -0.1900
     22 C22       -11.0060   -4.8158   57.4629 C.ar    1  ZINC001199210165    0.1400
     23 N23       -11.1501   -4.3390   56.2417 N.ar    1  ZINC001199210165   -0.5200
     24 H24       -13.6775   -3.0193   53.5193 H       1  ZINC001199210165    0.0600
     25 H25       -13.3118   -4.6729   52.9713 H       1  ZINC001199210165    0.0700
     26 H26       -13.3837   -4.3076   54.7118 H       1  ZINC001199210165    0.0600
     27 H27       -11.0353   -4.4894   53.9369 H       1  ZINC001199210165    0.0900
     28 H28       -11.7902   -2.1434   52.1360 H       1  ZINC001199210165    0.0700
     29 H29       -10.1518   -2.8078   52.3431 H       1  ZINC001199210165    0.0600
     30 H30       -11.4245   -3.7970   51.5880 H       1  ZINC001199210165    0.0800
     31 H31       -11.1355   -1.0599   56.8296 H       1  ZINC001199210165    0.1600
     32 H32       -11.0296   -3.0500   60.9090 H       1  ZINC001199210165    0.4100
     33 H33       -12.8465   -0.5485   61.6422 H       1  ZINC001199210165    0.1500
     34 H34       -12.7030    1.0136   63.5107 H       1  ZINC001199210165    0.1400
     35 H35        -7.6100   -0.2347   64.4164 H       1  ZINC001199210165    0.4500
     36 H36        -8.7660   -1.6949   62.2161 H       1  ZINC001199210165    0.1400
     37 H37       -10.7902   -4.3696   59.5451 H       1  ZINC001199210165    0.1400
     38 H38       -10.9716   -5.8843   57.6162 H       1  ZINC001199210165    0.1700
@<TRIPOS>BOND
     1     1     2    1
     2     1    24    1
     3     1    25    1
     4     1    26    1
     5     2     3    1
     6     2     4    1
     7     2    27    1
     8     3    28    1
     9     3    29    1
    10     3    30    1
    11     4     5    1
    12     5    23   ar
    13     5     6   ar
    14     6     7   ar
    15     6    31    1
    16     7     8    1
    17     7    21   ar
    18     8     9    2
    19     8    10   am
    20    10    11    1
    21    10    32    1
    22    11    20   ar
    23    11    12   ar
    24    12    13   ar
    25    12    33    1
    26    13    14   ar
    27    13    34    1
    28    14    19   ar
    29    14    15    1
    30    15    16    1
    31    15    17    2
    32    17    18    1
    33    18    19    1
    34    18    35    1
    35    19    20   ar
    36    20    36    1
    37    21    22   ar
    38    21    37    1
    39    22    23   ar
    40    22    38    1
@<TRIPOS>SUBSTRUCTURE
     1 ZINC001199210165        1 TEMP              0 ****  ****    0 ROOT


##########                                Name:    ZINC000632456679
##########                DOCK_Rotatable_Bonds:                   6
##########                         Heavy_Atoms:                  24
##########                    Molecular_Weight:              374.82
##########                DOCK_Rotatable_Bonds:                   6
##########                       Formal_Charge:          -0.0299999
##########                     HBond_Acceptors:                   9
##########                        HBond_Donors:                   1
##########                         Heavy_Atoms:                  24
##########                          Grid_Score:          -31.809172
##########                     Grid_vdw_energy:          -31.446789
##########                      Grid_es_energy:           -0.362383
##########           Internal_energy_repulsive:           34.740723

@<TRIPOS>MOLECULE
ZINC000632456679
 40 41 1 0 0
SMALL
USER_CHARGES


@<TRIPOS>ATOM
      1 C1        -15.0860   -3.6251   56.2666 C.3     1  ZINC000632456679   -0.1600
      2 C2        -13.6759   -4.2156   56.3312 C.3     1  ZINC000632456679    0.1900
      3 C3        -13.7583   -5.6901   56.7309 C.3     1  ZINC000632456679   -0.2000
      4 C4        -13.0096   -4.0956   54.9591 C.3     1  ZINC000632456679   -0.6300
      5 S5        -12.5802   -2.3613   54.6452 S.o2    1  ZINC000632456679    2.4100
      6 C6        -11.8589   -2.4488   52.9830 C.3     1  ZINC000632456679   -0.6600
      7 O7        -13.7799   -1.6027   54.5786 O.2     1  ZINC000632456679   -0.9300
      8 O8        -11.5641   -1.9737   55.5598 O.2     1  ZINC000632456679   -0.9300
      9 N9        -12.8851   -3.4839   57.3238 N.am    1  ZINC000632456679   -0.7200
     10 C10       -11.6019   -3.8282   57.5499 C.2     1  ZINC000632456679    0.6200
     11 O11       -11.1011   -4.7472   56.9311 O.2     1  ZINC000632456679   -0.5000
     12 C12       -10.8050   -3.0903   58.5483 C.2     1  ZINC000632456679   -0.0900
     13 C13       -11.2825   -2.3058   59.5596 C.2     1  ZINC000632456679   -0.1300
     14 C14       -10.1075   -1.8420   60.2128 C.2     1  ZINC000632456679    0.0400
     15 C15       -10.0407   -0.9451   61.3933 C.ar    1  ZINC000632456679   -0.0500
     16 C16        -9.3633   -1.3499   62.5414 C.ar    1  ZINC000632456679   -0.0600
     17 C17        -9.3037   -0.5124   63.6369 C.ar    1  ZINC000632456679   -0.1100
     18 C18        -9.9152    0.7276   63.5985 C.ar    1  ZINC000632456679   -0.0700
     19 C19       -10.5901    1.1374   62.4622 C.ar    1  ZINC000632456679   -0.0800
     20 Cl20      -11.3549    2.6954   62.4223 Cl      1  ZINC000632456679   -0.0400
     21 C21       -10.6511    0.3089   61.3555 C.ar    1  ZINC000632456679    0.1400
     22 F22       -11.3097    0.7086   60.2456 F       1  ZINC000632456679   -0.1100
     23 N23        -9.0964   -2.3646   59.5654 N.2     1  ZINC000632456679   -0.3200
     24 O24        -9.4625   -3.0609   58.6476 O.3     1  ZINC000632456679    0.1400
     25 H25       -15.5608   -3.7106   57.2440 H       1  ZINC000632456679    0.0900
     26 H26       -15.0272   -2.5746   55.9818 H       1  ZINC000632456679    0.0600
     27 H27       -15.6744   -4.1694   55.5280 H       1  ZINC000632456679    0.0700
     28 H28       -14.3467   -6.2344   55.9923 H       1  ZINC000632456679    0.0800
     29 H29       -12.7538   -6.1108   56.7768 H       1  ZINC000632456679    0.0800
     30 H30       -14.2331   -5.7756   57.7083 H       1  ZINC000632456679    0.0900
     31 H31       -12.1048   -4.7030   54.9402 H       1  ZINC000632456679    0.1600
     32 H32       -13.6977   -4.4445   54.1892 H       1  ZINC000632456679    0.1400
     33 H33       -12.6001   -2.8389   52.2854 H       1  ZINC000632456679    0.1300
     34 H34       -11.5520   -1.4517   52.6671 H       1  ZINC000632456679    0.1300
     35 H35       -10.9912   -3.1083   52.9977 H       1  ZINC000632456679    0.1300
     36 H36       -13.2851   -2.7515   57.8184 H       1  ZINC000632456679    0.4200
     37 H37       -12.3116   -2.0882   59.8053 H       1  ZINC000632456679    0.1900
     38 H38        -8.8855   -2.3178   62.5742 H       1  ZINC000632456679    0.1500
     39 H39        -8.7784   -0.8265   64.5268 H       1  ZINC000632456679    0.1500
     40 H40        -9.8660    1.3784   64.4590 H       1  ZINC000632456679    0.1500
@<TRIPOS>BOND
     1     1     2    1
     2     1    25    1
     3     1    26    1
     4     1    27    1
     5     2     3    1
     6     2     4    1
     7     2     9    1
     8     3    28    1
     9     3    29    1
    10     3    30    1
    11     4     5    1
    12     4    31    1
    13     4    32    1
    14     5     6    1
    15     5     7    2
    16     5     8    2
    17     6    33    1
    18     6    34    1
    19     6    35    1
    20     9    10   am
    21     9    36    1
    22    10    11    2
    23    10    12    1
    24    12    24    1
    25    12    13    2
    26    13    14    1
    27    13    37    1
    28    14    15    1
    29    14    23    2
    30    15    21   ar
    31    15    16   ar
    32    16    17   ar
    33    16    38    1
    34    17    18   ar
    35    17    39    1
    36    18    19   ar
    37    18    40    1
    38    19    20    1
    39    19    21   ar
    40    21    22    1
    41    23    24    1
@<TRIPOS>SUBSTRUCTURE
     1 ZINC000632456679        1 TEMP              0 ****  ****    0 ROOT


##########                                Name:    ZINC000191003171
##########                DOCK_Rotatable_Bonds:                   6
##########                         Heavy_Atoms:                  26
##########                    Molecular_Weight:             389.414
##########                DOCK_Rotatable_Bonds:                   6
##########                       Formal_Charge:          -0.0200002
##########                     HBond_Acceptors:                   8
##########                        HBond_Donors:                   1
##########                         Heavy_Atoms:                  26
##########                          Grid_Score:          -31.781956
##########                     Grid_vdw_energy:          -30.885799
##########                      Grid_es_energy:           -0.896157
##########           Internal_energy_repulsive:           13.495909

@<TRIPOS>MOLECULE
ZINC000191003171
 45 46 1 0 0
SMALL
USER_CHARGES


@<TRIPOS>ATOM
      1 C1        -12.0846   -2.5985   53.4142 C.3     1  ZINC000191003171   -0.1200
      2 C2        -13.3233   -2.5824   52.5559 C.ar    1  ZINC000191003171   -0.0800
      3 C3        -13.3427   -1.8496   51.3843 C.ar    1  ZINC000191003171   -0.0700
      4 C4        -14.4791   -1.8347   50.5969 C.ar    1  ZINC000191003171   -0.1800
      5 C5        -14.5004   -1.0353   49.3196 C.3     1  ZINC000191003171    0.5100
      6 F6        -15.8113   -0.6324   49.0433 F       1  ZINC000191003171   -0.1800
      7 F7        -13.6859    0.0931   49.4621 F       1  ZINC000191003171   -0.1800
      8 F8        -14.0235   -1.8247   48.2674 F       1  ZINC000191003171   -0.1800
      9 C9        -15.5954   -2.5534   50.9811 C.ar    1  ZINC000191003171   -0.0800
     10 C10       -15.5759   -3.2868   52.1529 C.ar    1  ZINC000191003171   -0.1000
     11 C11       -14.4384   -3.3051   52.9379 C.ar    1  ZINC000191003171   -0.0500
     12 C12       -14.4171   -4.1045   54.2152 C.3     1  ZINC000191003171    0.0900
     13 N13       -14.8991   -3.2695   55.3235 N.3     1  ZINC000191003171   -0.6800
     14 C14       -14.8241   -3.9936   56.5994 C.3     1  ZINC000191003171    0.1200
     15 H15       -14.9001   -5.0651   56.4142 H       1  ZINC000191003171    0.0600
     16 C16       -15.9742   -3.5501   57.5059 C.3     1  ZINC000191003171   -0.1400
     17 C17       -13.5096   -3.6921   57.2717 C.ar    1  ZINC000191003171   -0.0100
     18 C18       -12.6243   -4.7168   57.5489 C.ar    1  ZINC000191003171   -0.1300
     19 C19       -11.4178   -4.4415   58.1657 C.ar    1  ZINC000191003171    0.0100
     20 C20       -11.0958   -3.1416   58.5058 C.ar    1  ZINC000191003171   -0.7000
     21 S21        -9.5582   -2.7913   59.2918 S.o2    1  ZINC000191003171    2.5000
     22 C22       -10.0040   -2.4085   61.0081 C.3     1  ZINC000191003171   -0.6500
     23 O23        -8.8428   -4.0172   59.2240 O.2     1  ZINC000191003171   -0.9300
     24 O24        -9.0827   -1.6280   58.6288 O.2     1  ZINC000191003171   -0.9300
     25 C25       -11.9818   -2.1141   58.2281 C.ar    1  ZINC000191003171    0.1900
     26 F26       -11.6680   -0.8427   58.5602 F       1  ZINC000191003171   -0.1200
     27 C27       -13.1872   -2.3902   57.6058 C.ar    1  ZINC000191003171   -0.1700
     28 H28       -11.4363   -3.4169   53.1010 H       1  ZINC000191003171    0.0800
     29 H29       -11.5543   -1.6526   53.3047 H       1  ZINC000191003171    0.0800
     30 H30       -12.3673   -2.7379   54.4576 H       1  ZINC000191003171    0.0600
     31 H31       -12.4702   -1.2883   51.0839 H       1  ZINC000191003171    0.1400
     32 H32       -16.4831   -2.5417   50.3661 H       1  ZINC000191003171    0.1400
     33 H33       -16.4483   -3.8481   52.4533 H       1  ZINC000191003171    0.1400
     34 H34       -15.0630   -4.9760   54.1092 H       1  ZINC000191003171    0.0900
     35 H35       -13.3979   -4.4308   54.4226 H       1  ZINC000191003171    0.0500
     36 H36       -14.3883   -2.4006   55.3703 H       1  ZINC000191003171    0.3500
     37 H37       -15.9186   -4.0874   58.4526 H       1  ZINC000191003171    0.0600
     38 H38       -15.8982   -2.4786   57.6912 H       1  ZINC000191003171    0.0700
     39 H39       -16.9250   -3.7682   57.0196 H       1  ZINC000191003171    0.0600
     40 H40       -12.8753   -5.7332   57.2838 H       1  ZINC000191003171    0.1500
     41 H41       -10.7270   -5.2430   58.3821 H       1  ZINC000191003171    0.1600
     42 H42       -10.5026   -3.2689   61.4545 H       1  ZINC000191003171    0.1300
     43 H43        -9.1022   -2.1769   61.5747 H       1  ZINC000191003171    0.1400
     44 H44       -10.6752   -1.5499   61.0262 H       1  ZINC000191003171    0.1300
     45 H45       -13.8787   -1.5896   57.3885 H       1  ZINC000191003171    0.1500
@<TRIPOS>BOND
     1     1     2    1
     2     1    28    1
     3     1    29    1
     4     1    30    1
     5     2    11   ar
     6     2     3   ar
     7     3     4   ar
     8     3    31    1
     9     4     5    1
    10     4     9   ar
    11     5     6    1
    12     5     7    1
    13     5     8    1
    14     9    10   ar
    15     9    32    1
    16    10    11   ar
    17    10    33    1
    18    11    12    1
    19    12    13    1
    20    12    34    1
    21    12    35    1
    22    13    14    1
    23    13    36    1
    24    14    15    1
    25    14    16    1
    26    14    17    1
    27    16    37    1
    28    16    38    1
    29    16    39    1
    30    17    27   ar
    31    17    18   ar
    32    18    19   ar
    33    18    40    1
    34    19    20   ar
    35    19    41    1
    36    20    21    1
    37    20    25   ar
    38    21    22    1
    39    21    23    2
    40    21    24    2
    41    22    42    1
    42    22    43    1
    43    22    44    1
    44    25    26    1
    45    25    27   ar
    46    27    45    1
@<TRIPOS>SUBSTRUCTURE
     1 ZINC000191003171        1 TEMP              0 ****  ****    0 ROOT


##########                                Name:    ZINC000518234532
##########                DOCK_Rotatable_Bonds:                   5
##########                         Heavy_Atoms:                  25
##########                    Molecular_Weight:             408.267
##########                DOCK_Rotatable_Bonds:                   5
##########                       Formal_Charge:         -0.00999981
##########                     HBond_Acceptors:                   5
##########                        HBond_Donors:                   1
##########                         Heavy_Atoms:                  25
##########                          Grid_Score:          -31.765747
##########                     Grid_vdw_energy:          -29.815346
##########                      Grid_es_energy:           -1.950401
##########           Internal_energy_repulsive:           17.773050

@<TRIPOS>MOLECULE
ZINC000518234532
 44 46 1 0 0
SMALL
USER_CHARGES


@<TRIPOS>ATOM
      1 C1        -12.2856   -0.5220   59.1935 C.3     1  ZINC000518234532   -0.1600
      2 C2        -10.7614   -0.3925   59.2292 C.3     1  ZINC000518234532    0.1800
      3 H3        -10.3146   -1.1978   58.6461 H       1  ZINC000518234532    0.1100
      4 N4        -10.3676    0.8989   58.6604 N.am    1  ZINC000518234532   -0.7300
      5 C5         -9.4441    0.9499   57.6800 C.2     1  ZINC000518234532    0.5200
      6 O6         -8.9402   -0.0735   57.2678 O.2     1  ZINC000518234532   -0.5200
      7 C7         -9.0376    2.2784   57.0962 C.3     1  ZINC000518234532   -0.0700
      8 H8         -8.0656    2.5685   57.4953 H       1  ZINC000518234532    0.1100
      9 C9        -10.0776    3.3376   57.4661 C.3     1  ZINC000518234532   -0.1400
     10 C10        -8.9504    2.1623   55.5962 C.ar    1  ZINC000518234532   -0.1000
     11 C11        -7.8144    2.5884   54.9349 C.ar    1  ZINC000518234532   -0.0600
     12 C12        -7.7341    2.4821   53.5587 C.ar    1  ZINC000518234532   -0.1300
     13 C13        -8.7900    1.9500   52.8427 C.ar    1  ZINC000518234532   -0.0900
     14 C14        -9.9275    1.5235   53.5021 C.ar    1  ZINC000518234532   -0.1600
     15 C15       -10.0063    1.6234   54.8806 C.ar    1  ZINC000518234532    0.1000
     16 F16       -11.1177    1.2068   55.5261 F       1  ZINC000518234532   -0.1400
     17 C17       -10.2832   -0.4799   60.6556 C.ar    1  ZINC000518234532   -0.0600
     18 C18       -10.4623    0.5912   61.5101 C.ar    1  ZINC000518234532   -0.1100
     19 C19       -10.0239    0.5134   62.8238 C.ar    1  ZINC000518234532    0.0800
     20 C20        -9.4062   -0.6452   63.2790 C.ar    1  ZINC000518234532    0.0600
     21 C21        -9.2281   -1.7167   62.4166 C.ar    1  ZINC000518234532   -0.0800
     22 C22        -9.6708   -1.6344   61.1092 C.ar    1  ZINC000518234532   -0.0800
     23 Br23       -9.4274   -3.0974   59.9361 Br      1  ZINC000518234532   -0.0300
     24 O24        -8.9757   -0.7452   64.5664 O.3     1  ZINC000518234532   -0.3000
     25 C25        -8.8353    0.4792   65.2951 C.3     1  ZINC000518234532    0.0200
     26 C26       -10.0922    1.3270   65.0571 C.3     1  ZINC000518234532    0.0200
     27 O27       -10.2039    1.5785   63.6522 O.3     1  ZINC000518234532   -0.3000
     28 H28       -12.6315   -0.4588   58.1617 H       1  ZINC000518234532    0.0700
     29 H29       -12.5785   -1.4827   59.6167 H       1  ZINC000518234532    0.0700
     30 H30       -12.7324    0.2833   59.7765 H       1  ZINC000518234532    0.0600
     31 H31       -10.7714    1.7171   58.9893 H       1  ZINC000518234532    0.4000
     32 H32       -10.1408    3.4217   58.5511 H       1  ZINC000518234532    0.0700
     33 H33        -9.7837    4.2986   57.0438 H       1  ZINC000518234532    0.0700
     34 H34       -11.0496    3.0475   57.0670 H       1  ZINC000518234532    0.0700
     35 H35        -6.9890    3.0050   55.4932 H       1  ZINC000518234532    0.1300
     36 H36        -6.8459    2.8154   53.0427 H       1  ZINC000518234532    0.1300
     37 H37        -8.7263    1.8677   51.7677 H       1  ZINC000518234532    0.1300
     38 H38       -10.7526    1.1084   52.9424 H       1  ZINC000518234532    0.1400
     39 H39       -10.9439    1.4902   61.1547 H       1  ZINC000518234532    0.1400
     40 H40        -8.7464   -2.6174   62.7673 H       1  ZINC000518234532    0.1500
     41 H41        -8.7328    0.2642   66.3588 H       1  ZINC000518234532    0.1300
     42 H42        -7.9561    1.0182   64.9422 H       1  ZINC000518234532    0.0800
     43 H43       -10.9721    0.7854   65.4045 H       1  ZINC000518234532    0.0800
     44 H44       -10.0055    2.2715   65.5941 H       1  ZINC000518234532    0.1300
@<TRIPOS>BOND
     1     1     2    1
     2     1    28    1
     3     1    29    1
     4     1    30    1
     5     2     3    1
     6     2     4    1
     7     2    17    1
     8     4     5   am
     9     4    31    1
    10     5     6    2
    11     5     7    1
    12     7     8    1
    13     7     9    1
    14     7    10    1
    15     9    32    1
    16     9    33    1
    17     9    34    1
    18    10    15   ar
    19    10    11   ar
    20    11    12   ar
    21    11    35    1
    22    12    13   ar
    23    12    36    1
    24    13    14   ar
    25    13    37    1
    26    14    15   ar
    27    14    38    1
    28    15    16    1
    29    17    22   ar
    30    17    18   ar
    31    18    19   ar
    32    18    39    1
    33    19    27    1
    34    19    20   ar
    35    20    21   ar
    36    20    24    1
    37    21    22   ar
    38    21    40    1
    39    22    23    1
    40    24    25    1
    41    25    26    1
    42    25    41    1
    43    25    42    1
    44    26    27    1
    45    26    43    1
    46    26    44    1
@<TRIPOS>SUBSTRUCTURE
     1 ZINC000518234532        1 TEMP              0 ****  ****    0 ROOT


##########                                Name:    ZINC000680410869
##########                DOCK_Rotatable_Bonds:                   6
##########                         Heavy_Atoms:                  24
##########                    Molecular_Weight:             335.354
##########                DOCK_Rotatable_Bonds:                   6
##########                       Formal_Charge:        -1.04308e-07
##########                     HBond_Acceptors:                   7
##########                        HBond_Donors:                   0
##########                         Heavy_Atoms:                  24
##########                          Grid_Score:          -31.738455
##########                     Grid_vdw_energy:          -31.728836
##########                      Grid_es_energy:           -0.009620
##########           Internal_energy_repulsive:           12.003371

@<TRIPOS>MOLECULE
ZINC000680410869
 43 45 1 0 0
SMALL
USER_CHARGES


@<TRIPOS>ATOM
      1 O1        -14.5523   -4.4268   57.9452 O.2     1  ZINC000680410869   -0.5200
      2 C2        -13.5830   -4.0611   57.3089 C.2     1  ZINC000680410869    0.6100
      3 C3        -12.2504   -4.0304   57.9454 C.2     1  ZINC000680410869    0.0100
      4 N4        -11.8042   -3.1199   58.7876 N.2     1  ZINC000680410869   -0.2500
      5 N5        -10.6031   -3.4018   59.1459 N.pl3   1  ZINC000680410869   -0.3500
      6 C6         -9.7975   -2.6059   60.0752 C.3     1  ZINC000680410869    0.5000
      7 F7         -8.9147   -3.4450   60.7638 F       1  ZINC000680410869   -0.1600
      8 F8         -9.0693   -1.6493   59.3599 F       1  ZINC000680410869   -0.1700
      9 C9        -10.1904   -4.5375   58.5433 C.2     1  ZINC000680410869    0.0100
     10 C10       -11.2122   -4.9761   57.7715 C.2     1  ZINC000680410869   -0.1700
     11 N11       -13.7236   -3.6890   56.0212 N.am    1  ZINC000680410869   -0.6000
     12 C12       -15.0408   -3.7113   55.3656 C.3     1  ZINC000680410869    0.0800
     13 C13       -14.9089   -4.4714   54.0411 C.3     1  ZINC000680410869    0.0500
     14 O14       -13.8321   -3.9141   53.2836 O.3     1  ZINC000680410869   -0.3700
     15 C15       -12.5531   -4.0309   53.9113 C.3     1  ZINC000680410869    0.0800
     16 H16       -12.3411   -5.0809   54.1133 H       1  ZINC000680410869    0.0600
     17 C17       -11.4759   -3.4609   52.9863 C.3     1  ZINC000680410869   -0.1000
     18 C18       -11.9524   -2.1259   52.4104 C.3     1  ZINC000680410869   -0.0800
     19 C19       -10.8359   -1.1169   52.4912 C.ar    1  ZINC000680410869   -0.0800
     20 C20        -9.5703   -1.4494   52.0458 C.ar    1  ZINC000680410869   -0.1200
     21 C21        -8.5462   -0.5238   52.1199 C.ar    1  ZINC000680410869   -0.1200
     22 C22        -8.7879    0.7344   52.6391 C.ar    1  ZINC000680410869   -0.1300
     23 C23       -10.0539    1.0671   53.0837 C.ar    1  ZINC000680410869   -0.1200
     24 C24       -11.0789    0.1430   53.0056 C.ar    1  ZINC000680410869   -0.1200
     25 C25       -12.5652   -3.2427   55.2310 C.3     1  ZINC000680410869    0.0600
     26 H26       -10.4532   -2.1054   60.7877 H       1  ZINC000680410869    0.1700
     27 H27        -9.2261   -5.0102   58.6588 H       1  ZINC000680410869    0.1900
     28 H28       -11.2296   -5.8588   57.1495 H       1  ZINC000680410869    0.1700
     29 H29       -15.7622   -4.2159   56.0083 H       1  ZINC000680410869    0.1000
     30 H30       -15.3717   -2.6909   55.1720 H       1  ZINC000680410869    0.0800
     31 H31       -14.7056   -5.5230   54.2435 H       1  ZINC000680410869    0.0600
     32 H32       -15.8365   -4.3815   53.4757 H       1  ZINC000680410869    0.1100
     33 H33       -10.5568   -3.3056   53.5513 H       1  ZINC000680410869    0.0800
     34 H34       -11.2880   -4.1613   52.1725 H       1  ZINC000680410869    0.0800
     35 H35       -12.2437   -2.2628   51.3689 H       1  ZINC000680410869    0.0700
     36 H36       -12.8080   -1.7680   52.9829 H       1  ZINC000680410869    0.0800
     37 H37        -9.3814   -2.4323   51.6401 H       1  ZINC000680410869    0.1200
     38 H38        -7.5572   -0.7837   51.7725 H       1  ZINC000680410869    0.1200
     39 H39        -7.9877    1.4573   52.6977 H       1  ZINC000680410869    0.1200
     40 H40       -10.2427    2.0500   53.4896 H       1  ZINC000680410869    0.1200
     41 H41       -12.0679    0.4029   53.3529 H       1  ZINC000680410869    0.1200
     42 H42       -12.6462   -2.1763   55.0209 H       1  ZINC000680410869    0.0800
     43 H43       -11.6472   -3.4397   55.7847 H       1  ZINC000680410869    0.1300
@<TRIPOS>BOND
     1     1     2    2
     2     2     3    1
     3     2    11   am
     4     3    10    1
     5     3     4    2
     6     4     5    1
     7     5     6    1
     8     5     9    1
     9     6     7    1
    10     6     8    1
    11     6    26    1
    12     9    10    2
    13     9    27    1
    14    10    28    1
    15    11    25    1
    16    11    12    1
    17    12    13    1
    18    12    29    1
    19    12    30    1
    20    13    14    1
    21    13    31    1
    22    13    32    1
    23    14    15    1
    24    15    16    1
    25    15    17    1
    26    15    25    1
    27    17    18    1
    28    17    33    1
    29    17    34    1
    30    18    19    1
    31    18    35    1
    32    18    36    1
    33    19    24   ar
    34    19    20   ar
    35    20    21   ar
    36    20    37    1
    37    21    22   ar
    38    21    38    1
    39    22    23   ar
    40    22    39    1
    41    23    24   ar
    42    23    40    1
    43    24    41    1
    44    25    42    1
    45    25    43    1
@<TRIPOS>SUBSTRUCTURE
     1 ZINC000680410869        1 TEMP              0 ****  ****    0 ROOT


##########                                Name:    ZINC000541252362
##########                DOCK_Rotatable_Bonds:                   5
##########                         Heavy_Atoms:                  27
##########                    Molecular_Weight:             401.254
##########                DOCK_Rotatable_Bonds:                   5
##########                       Formal_Charge:          -0.0199999
##########                     HBond_Acceptors:                   9
##########                        HBond_Donors:                   1
##########                         Heavy_Atoms:                  27
##########                          Grid_Score:          -31.699579
##########                     Grid_vdw_energy:          -31.485455
##########                      Grid_es_energy:           -0.214125
##########           Internal_energy_repulsive:            3.477261

@<TRIPOS>MOLECULE
ZINC000541252362
 41 44 1 0 0
SMALL
USER_CHARGES


@<TRIPOS>ATOM
      1 C1         -9.2219    2.2922   65.8861 C.3     1  ZINC000541252362    0.1000
      2 N2        -10.4871    1.7097   65.4319 N.pl3   1  ZINC000541252362   -0.3800
      3 C3        -11.6887    1.8339   66.0240 C.2     1  ZINC000541252362    0.2600
      4 N4        -12.5650    1.1713   65.3165 N.2     1  ZINC000541252362   -0.5300
      5 C5        -11.9627    0.6075   64.2609 C.2     1  ZINC000541252362    0.2700
      6 C6        -12.6284   -0.2231   63.2268 C.ar    1  ZINC000541252362    0.0000
      7 C7        -13.9368   -0.6621   63.4193 C.ar    1  ZINC000541252362   -0.1000
      8 C8        -14.5552   -1.4346   62.4561 C.ar    1  ZINC000541252362   -0.1000
      9 C9        -13.8801   -1.7752   61.2996 C.ar    1  ZINC000541252362   -0.1300
     10 C10       -12.5750   -1.3418   61.0994 C.ar    1  ZINC000541252362    0.1400
     11 N11       -11.8943   -1.6887   59.9268 N.am    1  ZINC000541252362   -0.6800
     12 C12       -10.8913   -2.5877   59.9708 C.2     1  ZINC000541252362    0.5100
     13 O13       -10.5783   -3.0961   61.0266 O.2     1  ZINC000541252362   -0.4900
     14 C14       -10.1583   -2.9613   58.7082 C.3     1  ZINC000541252362   -0.0600
     15 C15       -11.1543   -3.2264   57.6088 C.2     1  ZINC000541252362    0.0700
     16 C16       -11.2973   -2.4953   56.4814 C.2     1  ZINC000541252362   -0.0700
     17 N17       -12.3044   -3.0678   55.7535 N.pl3   1  ZINC000541252362   -0.3500
     18 C18       -12.8671   -2.7541   54.5491 C.2     1  ZINC000541252362    0.0700
     19 C19       -13.8727   -3.5007   54.0446 C.2     1  ZINC000541252362   -0.0500
     20 Cl20      -14.5736   -3.0842   52.5120 Cl      1  ZINC000541252362   -0.0200
     21 C21       -14.3542   -4.6139   54.7547 C.2     1  ZINC000541252362   -0.0900
     22 C22       -13.8018   -4.9374   55.9559 C.2     1  ZINC000541252362    0.0200
     23 Cl23      -14.3830   -6.3092   56.8471 Cl      1  ZINC000541252362   -0.0100
     24 C24       -12.7525   -4.1471   56.4690 C.2     1  ZINC000541252362    0.2200
     25 N25       -12.0386   -4.2261   57.5834 N.2     1  ZINC000541252362   -0.4300
     26 C26       -11.9493   -0.5610   62.0592 C.ar    1  ZINC000541252362   -0.0800
     27 N27       -10.6850    0.9171   64.2897 N.2     1  ZINC000541252362   -0.3100
     28 H28        -9.0983    3.2813   65.4451 H       1  ZINC000541252362    0.0800
     29 H29        -9.2305    2.3773   66.9727 H       1  ZINC000541252362    0.0900
     30 H30        -8.3957    1.6513   65.5783 H       1  ZINC000541252362    0.0900
     31 H31       -11.8938    2.3863   66.9291 H       1  ZINC000541252362    0.2200
     32 H32       -14.4674   -0.3985   64.3223 H       1  ZINC000541252362    0.1300
     33 H33       -15.5694   -1.7739   62.6072 H       1  ZINC000541252362    0.1300
     34 H34       -14.3677   -2.3802   60.5495 H       1  ZINC000541252362    0.1300
     35 H35       -12.1446   -1.2820   59.0825 H       1  ZINC000541252362    0.4100
     36 H36        -9.5014   -2.1427   58.4138 H       1  ZINC000541252362    0.1200
     37 H37        -9.5644   -3.8581   58.8845 H       1  ZINC000541252362    0.1200
     38 H38       -10.7243   -1.6220   56.2067 H       1  ZINC000541252362    0.1900
     39 H39       -12.5045   -1.9007   53.9953 H       1  ZINC000541252362    0.1800
     40 H40       -15.1589   -5.2095   54.3495 H       1  ZINC000541252362    0.1600
     41 H41       -10.9352   -0.2228   61.9054 H       1  ZINC000541252362    0.1500
@<TRIPOS>BOND
     1     1     2    1
     2     1    28    1
     3     1    29    1
     4     1    30    1
     5     2    27    1
     6     2     3    1
     7     3     4    2
     8     3    31    1
     9     4     5    1
    10     5     6    1
    11     5    27    2
    12     6    26   ar
    13     6     7   ar
    14     7     8   ar
    15     7    32    1
    16     8     9   ar
    17     8    33    1
    18     9    10   ar
    19     9    34    1
    20    10    11    1
    21    10    26   ar
    22    11    12   am
    23    11    35    1
    24    12    13    2
    25    12    14    1
    26    14    15    1
    27    14    36    1
    28    14    37    1
    29    15    25    1
    30    15    16    2
    31    16    17    1
    32    16    38    1
    33    17    24    1
    34    17    18    1
    35    18    19    2
    36    18    39    1
    37    19    20    1
    38    19    21    1
    39    21    22    2
    40    21    40    1
    41    22    23    1
    42    22    24    1
    43    24    25    2
    44    26    41    1
@<TRIPOS>SUBSTRUCTURE
     1 ZINC000541252362        1 TEMP              0 ****  ****    0 ROOT


##########                                Name:    ZINC001139743874
##########                DOCK_Rotatable_Bonds:                   5
##########                         Heavy_Atoms:                  28
##########                    Molecular_Weight:             382.506
##########                DOCK_Rotatable_Bonds:                   5
##########                       Formal_Charge:           0.0199992
##########                     HBond_Acceptors:                   6
##########                        HBond_Donors:                   0
##########                         Heavy_Atoms:                  28
##########                          Grid_Score:          -31.683008
##########                     Grid_vdw_energy:          -31.513056
##########                      Grid_es_energy:           -0.169952
##########           Internal_energy_repulsive:           22.771441

@<TRIPOS>MOLECULE
ZINC001139743874
 58 61 1 0 0
SMALL
USER_CHARGES


@<TRIPOS>ATOM
      1 C1        -16.4196   -2.2506   50.4121 C.3     1  ZINC001139743874   -0.1800
      2 C2        -15.0525   -1.5987   50.6293 C.3     1  ZINC001139743874    0.1400
      3 C3        -14.5517   -1.0117   49.3082 C.3     1  ZINC001139743874   -0.1800
      4 C4        -15.1791   -0.4825   51.6680 C.3     1  ZINC001139743874   -0.1400
      5 O5        -14.1104   -2.5966   51.1035 O.3     1  ZINC001139743874   -0.3600
      6 C6        -12.9821   -2.1453   51.6831 C.2     1  ZINC001139743874    0.6500
      7 O7        -12.3782   -1.2121   51.1922 O.2     1  ZINC001139743874   -0.5700
      8 N8        -12.5223   -2.7287   52.8077 N.am    1  ZINC001139743874   -0.5900
      9 C9        -13.2196   -3.8269   53.3982 C.3     1  ZINC001139743874    0.1000
     10 C10       -14.3684   -3.4500   54.3764 C.3     1  ZINC001139743874   -0.1300
     11 C11       -13.9263   -2.2375   55.2458 C.3     1  ZINC001139743874   -0.0900
     12 C12       -12.4868   -2.3274   55.6334 C.3     1  ZINC001139743874   -0.0800
     13 C13       -12.1742   -2.0568   57.1099 C.3     1  ZINC001139743874    0.0100
     14 N14       -12.2730   -3.5233   57.2905 N.3     1  ZINC001139743874   -0.4700
     15 C15       -11.1987   -4.0201   58.1605 C.3     1  ZINC001139743874    0.0600
     16 C16       -11.0427   -3.0982   59.3424 C.ar    1  ZINC001139743874   -0.1200
     17 C17        -9.7715   -2.7050   59.7563 C.ar    1  ZINC001139743874    0.1500
     18 N18        -9.5989   -1.9042   60.7800 N.ar    1  ZINC001139743874   -0.4600
     19 C19       -10.6372   -1.4292   61.4717 C.ar    1  ZINC001139743874    0.0800
     20 C20       -10.4484   -0.5682   62.5713 C.ar    1  ZINC001139743874   -0.0400
     21 C21       -11.5524   -0.1177   63.2358 C.ar    1  ZINC001139743874   -0.1600
     22 C22       -12.8240   -0.5112   62.8218 C.ar    1  ZINC001139743874    0.1300
     23 N23       -12.9966   -1.3122   61.7986 N.ar    1  ZINC001139743874   -0.4700
     24 C24       -11.9580   -1.7871   61.1066 C.ar    1  ZINC001139743874    0.0800
     25 C25       -12.1471   -2.6437   60.0041 C.ar    1  ZINC001139743874   -0.0400
     26 C26       -11.9443   -3.7428   55.8632 C.3     1  ZINC001139743874    0.0000
     27 C27       -11.6409   -1.4948   54.6651 C.3     1  ZINC001139743874   -0.1300
     28 C28       -11.2661   -2.2443   53.4625 C.3     1  ZINC001139743874    0.1400
     29 H29       -16.3295   -3.0458   49.6721 H       1  ZINC001139743874    0.0900
     30 H30       -16.7763   -2.6687   51.3533 H       1  ZINC001139743874    0.0600
     31 H31       -17.1268   -1.5014   50.0561 H       1  ZINC001139743874    0.0700
     32 H32       -15.2589   -0.2626   48.9522 H       1  ZINC001139743874    0.0700
     33 H33       -13.5778   -0.5472   49.4629 H       1  ZINC001139743874    0.0600
     34 H34       -14.4616   -1.8069   48.5681 H       1  ZINC001139743874    0.0900
     35 H35       -15.5358   -0.9007   52.6092 H       1  ZINC001139743874    0.0700
     36 H36       -14.2051   -0.0181   51.8227 H       1  ZINC001139743874    0.0700
     37 H37       -15.8863    0.2667   51.3120 H       1  ZINC001139743874    0.0800
     38 H38       -13.6397   -4.4346   52.5967 H       1  ZINC001139743874    0.0700
     39 H39       -12.4973   -4.4378   53.9397 H       1  ZINC001139743874    0.0900
     40 H40       -15.2588   -3.1839   53.8067 H       1  ZINC001139743874    0.0700
     41 H41       -14.5895   -4.2997   55.0225 H       1  ZINC001139743874    0.0800
     42 H42       -14.0851   -1.3190   54.6809 H       1  ZINC001139743874    0.0600
     43 H43       -14.5359   -2.2071   56.1490 H       1  ZINC001139743874    0.0700
     44 H44       -11.1743   -1.6587   57.2821 H       1  ZINC001139743874    0.0700
     45 H45       -12.9521   -1.4964   57.6286 H       1  ZINC001139743874    0.0900
     46 H46       -11.4488   -5.0213   58.5113 H       1  ZINC001139743874    0.0600
     47 H47       -10.2641   -4.0542   57.6005 H       1  ZINC001139743874    0.0900
     48 H48        -8.9072   -3.0691   59.2208 H       1  ZINC001139743874    0.1700
     49 H49        -9.4566   -0.2728   62.8803 H       1  ZINC001139743874    0.1500
     50 H50       -11.4407    0.5434   64.0825 H       1  ZINC001139743874    0.1500
     51 H51       -13.6884   -0.1474   63.3575 H       1  ZINC001139743874    0.1700
     52 H52       -13.1391   -2.9361   59.6930 H       1  ZINC001139743874    0.1400
     53 H53       -12.5392   -4.5240   55.3900 H       1  ZINC001139743874    0.1000
     54 H54       -10.8766   -3.8416   55.6679 H       1  ZINC001139743874    0.0700
     55 H55       -12.2084   -0.6122   54.3700 H       1  ZINC001139743874    0.0700
     56 H56       -10.7332   -1.1737   55.1761 H       1  ZINC001139743874    0.0800
     57 H57       -10.6399   -3.0927   53.7388 H       1  ZINC001139743874    0.0800
     58 H58       -10.7221   -1.5931   52.7785 H       1  ZINC001139743874    0.1000
@<TRIPOS>BOND
     1     1     2    1
     2     1    29    1
     3     1    30    1
     4     1    31    1
     5     2     3    1
     6     2     4    1
     7     2     5    1
     8     3    32    1
     9     3    33    1
    10     3    34    1
    11     4    35    1
    12     4    36    1
    13     4    37    1
    14     5     6    1
    15     6     7    2
    16     6     8   am
    17     8    28    1
    18     8     9    1
    19     9    10    1
    20     9    38    1
    21     9    39    1
    22    10    11    1
    23    10    40    1
    24    10    41    1
    25    11    12    1
    26    11    42    1
    27    11    43    1
    28    12    26    1
    29    12    13    1
    30    12    27    1
    31    13    14    1
    32    13    44    1
    33    13    45    1
    34    14    15    1
    35    14    26    1
    36    15    16    1
    37    15    46    1
    38    15    47    1
    39    16    25   ar
    40    16    17   ar
    41    17    18   ar
    42    17    48    1
    43    18    19   ar
    44    19    24   ar
    45    19    20   ar
    46    20    21   ar
    47    20    49    1
    48    21    22   ar
    49    21    50    1
    50    22    23   ar
    51    22    51    1
    52    23    24   ar
    53    24    25   ar
    54    25    52    1
    55    26    53    1
    56    26    54    1
    57    27    28    1
    58    27    55    1
    59    27    56    1
    60    28    57    1
    61    28    58    1
@<TRIPOS>SUBSTRUCTURE
     1 ZINC001139743874        1 TEMP              0 ****  ****    0 ROOT


##########                                Name:    ZINC000549381790
##########                DOCK_Rotatable_Bonds:                   7
##########                         Heavy_Atoms:                  23
##########                    Molecular_Weight:             337.846
##########                DOCK_Rotatable_Bonds:                   7
##########                       Formal_Charge:           0.0300006
##########                     HBond_Acceptors:                   5
##########                        HBond_Donors:                   0
##########                         Heavy_Atoms:                  23
##########                          Grid_Score:          -31.681906
##########                     Grid_vdw_energy:          -31.587730
##########                      Grid_es_energy:           -0.094175
##########           Internal_energy_repulsive:           87.715034

@<TRIPOS>MOLECULE
ZINC000549381790
 47 49 1 0 0
SMALL
USER_CHARGES


@<TRIPOS>ATOM
      1 C1         -8.6702    0.1547   65.5824 C.3     1  ZINC000549381790   -0.1400
      2 C2        -10.0197    0.8548   65.4106 C.3     1  ZINC000549381790    0.1500
      3 H3        -10.7265    0.4715   66.1466 H       1  ZINC000549381790    0.0700
      4 C4         -9.8437    2.3641   65.6050 C.3     1  ZINC000549381790   -0.1300
      5 C5        -11.1650    3.0718   65.2958 C.3     1  ZINC000549381790   -0.1200
      6 C6        -11.5544    2.8147   63.8382 C.3     1  ZINC000549381790   -0.1400
      7 C7        -11.7497    1.3105   63.6238 C.3     1  ZINC000549381790    0.1000
      8 N8        -10.5347    0.6063   64.0572 N.am    1  ZINC000549381790   -0.6100
      9 C9         -9.9026   -0.2469   63.2273 C.2     1  ZINC000549381790    0.5200
     10 O10        -8.9007   -0.8219   63.5969 O.2     1  ZINC000549381790   -0.5000
     11 C11       -10.4406   -0.4865   61.8401 C.3     1  ZINC000549381790    0.0400
     12 O12        -9.4934   -1.2461   61.0865 O.3     1  ZINC000549381790   -0.2800
     13 C13        -9.9621   -1.9104   59.9964 C.ar    1  ZINC000549381790    0.1100
     14 C14        -9.6914   -3.2612   59.8384 C.ar    1  ZINC000549381790   -0.1700
     15 C15       -10.1678   -3.9368   58.7312 C.ar    1  ZINC000549381790   -0.1600
     16 C16       -10.9163   -3.2643   57.7774 C.ar    1  ZINC000549381790    0.1100
     17 O17       -11.3851   -3.9294   56.6877 O.3     1  ZINC000549381790   -0.3000
     18 C18       -12.3550   -4.9528   56.9199 C.3     1  ZINC000549381790    0.0900
     19 C19       -13.6810   -4.3135   57.3371 C.3     1  ZINC000549381790   -0.1600
     20 C20       -14.8587   -4.4331   56.3678 C.3     1  ZINC000549381790   -0.1700
     21 C21       -14.8462   -5.2507   57.6609 C.3     1  ZINC000549381790   -0.1700
     22 C22       -11.1874   -1.9120   57.9352 C.ar    1  ZINC000549381790   -0.0300
     23 Cl23      -12.1250   -1.0695   56.7414 Cl      1  ZINC000549381790   -0.0400
     24 C24       -10.7157   -1.2380   59.0456 C.ar    1  ZINC000549381790   -0.1000
     25 H25        -7.9958    0.4648   64.7842 H       1  ZINC000549381790    0.0600
     26 H26        -8.2405    0.4256   66.5467 H       1  ZINC000549381790    0.0500
     27 H27        -8.8128   -0.9250   65.5386 H       1  ZINC000549381790    0.0800
     28 H28        -9.5551    2.5668   66.6364 H       1  ZINC000549381790    0.0800
     29 H29        -9.0688    2.7298   64.9314 H       1  ZINC000549381790    0.0700
     30 H30       -11.9450    2.6878   65.9533 H       1  ZINC000549381790    0.0700
     31 H31       -11.0494    4.1435   65.4572 H       1  ZINC000549381790    0.0700
     32 H32       -12.4833    3.3381   63.6121 H       1  ZINC000549381790    0.0800
     33 H33       -10.7633    3.1760   63.1812 H       1  ZINC000549381790    0.0700
     34 H34       -12.5995    0.9648   64.2125 H       1  ZINC000549381790    0.0800
     35 H35       -11.9298    1.1123   62.5672 H       1  ZINC000549381790    0.0800
     36 H36       -11.3791   -1.0371   61.9045 H       1  ZINC000549381790    0.0900
     37 H37       -10.6138    0.4701   61.3474 H       1  ZINC000549381790    0.0900
     38 H38        -9.1079   -3.7854   60.5808 H       1  ZINC000549381790    0.1400
     39 H39        -9.9568   -4.9889   58.6086 H       1  ZINC000549381790    0.1400
     40 H40       -12.5011   -5.5292   56.0064 H       1  ZINC000549381790    0.0700
     41 H41       -12.0042   -5.6125   57.7136 H       1  ZINC000549381790    0.0700
     42 H42       -13.5978   -3.3947   57.9176 H       1  ZINC000549381790    0.1200
     43 H43       -15.5506   -3.5928   56.3103 H       1  ZINC000549381790    0.1000
     44 H44       -14.6888   -4.9672   55.4329 H       1  ZINC000549381790    0.1000
     45 H45       -14.6681   -6.3228   57.5768 H       1  ZINC000549381790    0.1000
     46 H46       -15.5297   -4.9483   58.4542 H       1  ZINC000549381790    0.1000
     47 H47       -10.9264   -0.1859   59.1687 H       1  ZINC000549381790    0.1500
@<TRIPOS>BOND
     1     1     2    1
     2     1    25    1
     3     1    26    1
     4     1    27    1
     5     2     3    1
     6     2     8    1
     7     2     4    1
     8     4     5    1
     9     4    28    1
    10     4    29    1
    11     5     6    1
    12     5    30    1
    13     5    31    1
    14     6     7    1
    15     6    32    1
    16     6    33    1
    17     7     8    1
    18     7    34    1
    19     7    35    1
    20     8     9   am
    21     9    10    2
    22     9    11    1
    23    11    12    1
    24    11    36    1
    25    11    37    1
    26    12    13    1
    27    13    24   ar
    28    13    14   ar
    29    14    15   ar
    30    14    38    1
    31    15    16   ar
    32    15    39    1
    33    16    17    1
    34    16    22   ar
    35    17    18    1
    36    18    19    1
    37    18    40    1
    38    18    41    1
    39    19    21    1
    40    19    20    1
    41    19    42    1
    42    20    21    1
    43    20    43    1
    44    20    44    1
    45    21    45    1
    46    21    46    1
    47    22    23    1
    48    22    24   ar
    49    24    47    1
@<TRIPOS>SUBSTRUCTURE
     1 ZINC000549381790        1 TEMP              0 ****  ****    0 ROOT


##########                                Name:    ZINC000464706598
##########                DOCK_Rotatable_Bonds:                   4
##########                         Heavy_Atoms:                  26
##########                    Molecular_Weight:             412.286
##########                DOCK_Rotatable_Bonds:                   4
##########                       Formal_Charge:           0.0100001
##########                     HBond_Acceptors:                   5
##########                        HBond_Donors:                   0
##########                         Heavy_Atoms:                  26
##########                          Grid_Score:          -31.679842
##########                     Grid_vdw_energy:          -31.163624
##########                      Grid_es_energy:           -0.516218
##########           Internal_energy_repulsive:           58.404228

@<TRIPOS>MOLECULE
ZINC000464706598
 44 47 1 0 0
SMALL
USER_CHARGES


@<TRIPOS>ATOM
      1 O1        -11.8768   -3.2815   59.1592 O.2     1  ZINC000464706598   -0.5000
      2 C2        -11.0770   -2.3659   59.1313 C.2     1  ZINC000464706598    0.5900
      3 C3        -10.4372   -1.9077   60.3778 C.2     1  ZINC000464706598   -0.2800
      4 C4        -10.7373   -0.7559   61.0775 C.2     1  ZINC000464706598    0.1300
      5 N5         -9.9270   -0.7151   62.1507 N.pl3   1  ZINC000464706598   -0.3100
      6 C6         -9.9072    0.2929   63.1245 C.ar    1  ZINC000464706598    0.1700
      7 C7         -9.1118    0.1532   64.2540 C.ar    1  ZINC000464706598   -0.1300
      8 C8         -9.0937    1.1480   65.2118 C.ar    1  ZINC000464706598   -0.0600
      9 C9         -9.8677    2.2830   65.0468 C.ar    1  ZINC000464706598   -0.1000
     10 Br10       -9.8410    3.6428   66.3606 Br      1  ZINC000464706598   -0.0400
     11 C11       -10.6608    2.4250   63.9220 C.ar    1  ZINC000464706598   -0.0700
     12 C12       -10.6785    1.4354   62.9587 C.ar    1  ZINC000464706598   -0.1100
     13 N13        -9.1079   -1.8494   62.1307 N.2     1  ZINC000464706598   -0.2800
     14 C14        -9.4064   -2.5684   61.0836 C.2     1  ZINC000464706598    0.0700
     15 N15       -10.7711   -1.7738   57.9598 N.am    1  ZINC000464706598   -0.6100
     16 C16        -9.8017   -0.6684   57.9002 C.3     1  ZINC000464706598    0.0400
     17 C17       -10.4360    0.4894   57.1210 C.3     1  ZINC000464706598    0.0500
     18 O18       -10.9220    0.0030   55.8676 O.3     1  ZINC000464706598   -0.3700
     19 C19       -11.9530   -0.9808   55.9818 C.3     1  ZINC000464706598    0.0500
     20 C20       -11.3922   -2.2177   56.7018 C.3     1  ZINC000464706598    0.1600
     21 H21       -10.6486   -2.7042   56.0705 H       1  ZINC000464706598    0.0900
     22 C22       -12.5113   -3.1812   57.0021 C.ar    1  ZINC000464706598   -0.0500
     23 C23       -12.3381   -4.5340   56.7763 C.ar    1  ZINC000464706598   -0.1000
     24 C24       -13.3646   -5.4177   57.0518 C.ar    1  ZINC000464706598   -0.1100
     25 C25       -14.5643   -4.9489   57.5535 C.ar    1  ZINC000464706598   -0.1200
     26 C26       -14.7373   -3.5963   57.7803 C.ar    1  ZINC000464706598   -0.1100
     27 C27       -13.7092   -2.7129   57.5088 C.ar    1  ZINC000464706598   -0.1000
     28 H28       -11.4842   -0.0224   60.8118 H       1  ZINC000464706598    0.1900
     29 H29        -8.5080   -0.7329   64.3836 H       1  ZINC000464706598    0.1400
     30 H30        -8.4752    1.0397   66.0905 H       1  ZINC000464706598    0.1500
     31 H31       -11.2638    3.3119   63.7954 H       1  ZINC000464706598    0.1500
     32 H32       -11.2975    1.5468   62.0807 H       1  ZINC000464706598    0.1500
     33 H33        -8.9422   -3.5019   60.8020 H       1  ZINC000464706598    0.2100
     34 H34        -9.5564   -0.3403   58.9103 H       1  ZINC000464706598    0.1200
     35 H35        -8.8967   -1.0008   57.3916 H       1  ZINC000464706598    0.0800
     36 H36       -11.2636    0.9050   57.6959 H       1  ZINC000464706598    0.0600
     37 H37        -9.6886    1.2632   56.9460 H       1  ZINC000464706598    0.1100
     38 H38       -12.7862   -0.5707   56.5526 H       1  ZINC000464706598    0.0600
     39 H39       -12.2970   -1.2649   54.9872 H       1  ZINC000464706598    0.1100
     40 H40       -11.4008   -4.9003   56.3843 H       1  ZINC000464706598    0.1100
     41 H41       -13.2295   -6.4745   56.8747 H       1  ZINC000464706598    0.1200
     42 H42       -15.3666   -5.6393   57.7682 H       1  ZINC000464706598    0.1200
     43 H43       -15.6747   -3.2299   58.1719 H       1  ZINC000464706598    0.1200
     44 H44       -13.8443   -1.6561   57.6859 H       1  ZINC000464706598    0.1100
@<TRIPOS>BOND
     1     1     2    2
     2     2     3    1
     3     2    15   am
     4     3    14    1
     5     3     4    2
     6     4     5    1
     7     4    28    1
     8     5     6    1
     9     5    13    1
    10     6    12   ar
    11     6     7   ar
    12     7     8   ar
    13     7    29    1
    14     8     9   ar
    15     8    30    1
    16     9    10    1
    17     9    11   ar
    18    11    12   ar
    19    11    31    1
    20    12    32    1
    21    13    14    2
    22    14    33    1
    23    15    20    1
    24    15    16    1
    25    16    17    1
    26    16    34    1
    27    16    35    1
    28    17    18    1
    29    17    36    1
    30    17    37    1
    31    18    19    1
    32    19    20    1
    33    19    38    1
    34    19    39    1
    35    20    21    1
    36    20    22    1
    37    22    27   ar
    38    22    23   ar
    39    23    24   ar
    40    23    40    1
    41    24    25   ar
    42    24    41    1
    43    25    26   ar
    44    25    42    1
    45    26    27   ar
    46    26    43    1
    47    27    44    1
@<TRIPOS>SUBSTRUCTURE
     1 ZINC000464706598        1 TEMP              0 ****  ****    0 ROOT


##########                                Name:    ZINC000542980334
##########                DOCK_Rotatable_Bonds:                   6
##########                         Heavy_Atoms:                  27
##########                    Molecular_Weight:             404.795
##########                DOCK_Rotatable_Bonds:                   6
##########                       Formal_Charge:           0.0300001
##########                     HBond_Acceptors:                  10
##########                        HBond_Donors:                   1
##########                         Heavy_Atoms:                  27
##########                          Grid_Score:          -31.675259
##########                     Grid_vdw_energy:          -30.766670
##########                      Grid_es_energy:           -0.908588
##########           Internal_energy_repulsive:           11.502646

@<TRIPOS>MOLECULE
ZINC000542980334
 44 46 1 0 0
SMALL
USER_CHARGES


@<TRIPOS>ATOM
      1 O1        -14.2074   -3.4460   55.8420 O.2     1  ZINC000542980334   -0.5800
      2 C2        -13.2867   -2.6538   55.7857 C.2     1  ZINC000542980334    0.7100
      3 N3        -12.5747   -2.3682   56.8938 N.am    1  ZINC000542980334   -0.7400
      4 C4        -12.9138   -3.0076   58.1675 C.3     1  ZINC000542980334    0.1800
      5 C5        -11.7324   -2.9284   59.0997 C.ar    1  ZINC000542980334   -0.1400
      6 C6        -11.6791   -1.9404   60.0676 C.ar    1  ZINC000542980334    0.1300
      7 F7        -12.6861   -1.0463   60.1771 F       1  ZINC000542980334   -0.1200
      8 C8        -10.5931   -1.8690   60.9239 C.ar    1  ZINC000542980334   -0.1500
      9 C9         -9.5635   -2.7839   60.8120 C.ar    1  ZINC000542980334   -0.0700
     10 C10        -9.6168   -3.7707   59.8454 C.ar    1  ZINC000542980334   -0.1200
     11 C11       -10.7034   -3.8467   58.9924 C.ar    1  ZINC000542980334    0.0100
     12 Cl12      -10.7696   -5.0867   57.7793 Cl      1  ZINC000542980334   -0.0400
     13 N13       -12.9746   -2.0655   54.6139 N.am    1  ZINC000542980334   -0.6300
     14 C14       -13.7415   -2.3668   53.3975 C.3     1  ZINC000542980334    0.1100
     15 C15       -12.7691   -2.8021   52.2968 C.3     1  ZINC000542980334   -0.1300
     16 C16       -11.6973   -1.7253   52.1135 C.3     1  ZINC000542980334   -0.1300
     17 C17       -10.9102   -1.5597   53.4155 C.3     1  ZINC000542980334    0.1400
     18 H18       -10.4543   -2.5113   53.6887 H       1  ZINC000542980334    0.1100
     19 N19        -9.8635   -0.5517   53.2293 N.pl3   1  ZINC000542980334   -0.3400
     20 C20        -9.3468    0.2430   54.1899 C.2     1  ZINC000542980334    0.0600
     21 C21        -8.4092    1.0304   53.6135 C.2     1  ZINC000542980334   -0.2300
     22 C22        -8.3509    0.7057   52.2543 C.2     1  ZINC000542980334   -0.0200
     23 C23        -7.4416    1.3387   51.2328 C.3     1  ZINC000542980334    0.5600
     24 F24        -7.1436    0.4068   50.2328 F       1  ZINC000542980334   -0.1700
     25 F25        -8.0794    2.4461   50.6633 F       1  ZINC000542980334   -0.1700
     26 F26        -6.2578    1.7508   51.8540 F       1  ZINC000542980334   -0.1600
     27 N27        -9.2180   -0.2467   52.0241 N.2     1  ZINC000542980334   -0.2300
     28 C28       -11.8652   -1.1060   54.5301 C.3     1  ZINC000542980334    0.1300
     29 H29       -11.8377   -1.7391   56.8481 H       1  ZINC000542980334    0.4000
     30 H30       -13.7653   -2.4956   58.6158 H       1  ZINC000542980334    0.0900
     31 H31       -13.1693   -4.0528   57.9927 H       1  ZINC000542980334    0.0900
     32 H32       -10.5507   -1.0981   61.6792 H       1  ZINC000542980334    0.1500
     33 H33        -8.7167   -2.7277   61.4798 H       1  ZINC000542980334    0.1500
     34 H34        -8.8115   -4.4850   59.7584 H       1  ZINC000542980334    0.1500
     35 H35       -14.4476   -3.1720   53.6007 H       1  ZINC000542980334    0.0800
     36 H36       -14.2821   -1.4764   53.0763 H       1  ZINC000542980334    0.0800
     37 H37       -12.2957   -3.7421   52.5804 H       1  ZINC000542980334    0.0800
     38 H38       -13.3138   -2.9361   51.3622 H       1  ZINC000542980334    0.0900
     39 H39       -11.0182   -2.0212   51.3138 H       1  ZINC000542980334    0.0800
     40 H40       -12.1732   -0.7796   51.8541 H       1  ZINC000542980334    0.0800
     41 H41        -9.6309    0.2497   55.2318 H       1  ZINC000542980334    0.1900
     42 H42        -7.8118    1.7777   54.1145 H       1  ZINC000542980334    0.1600
     43 H43       -12.2505   -0.1129   54.2994 H       1  ZINC000542980334    0.0800
     44 H44       -11.3321   -1.0817   55.4806 H       1  ZINC000542980334    0.1100
@<TRIPOS>BOND
     1     1     2    2
     2     2     3   am
     3     2    13   am
     4     3     4    1
     5     3    29    1
     6     4     5    1
     7     4    30    1
     8     4    31    1
     9     5    11   ar
    10     5     6   ar
    11     6     7    1
    12     6     8   ar
    13     8     9   ar
    14     8    32    1
    15     9    10   ar
    16     9    33    1
    17    10    11   ar
    18    10    34    1
    19    11    12    1
    20    13    28    1
    21    13    14    1
    22    14    15    1
    23    14    35    1
    24    14    36    1
    25    15    16    1
    26    15    37    1
    27    15    38    1
    28    16    17    1
    29    16    39    1
    30    16    40    1
    31    17    18    1
    32    17    19    1
    33    17    28    1
    34    19    27    1
    35    19    20    1
    36    20    21    2
    37    20    41    1
    38    21    22    1
    39    21    42    1
    40    22    23    1
    41    22    27    2
    42    23    24    1
    43    23    25    1
    44    23    26    1
    45    28    43    1
    46    28    44    1
@<TRIPOS>SUBSTRUCTURE
     1 ZINC000542980334        1 TEMP              0 ****  ****    0 ROOT


##########                                Name:    ZINC001045438664
##########                DOCK_Rotatable_Bonds:                   6
##########                         Heavy_Atoms:                  26
##########                    Molecular_Weight:             352.439
##########                DOCK_Rotatable_Bonds:                   6
##########                       Formal_Charge:          -0.0099999
##########                     HBond_Acceptors:                   7
##########                        HBond_Donors:                   2
##########                         Heavy_Atoms:                  26
##########                          Grid_Score:          -31.673685
##########                     Grid_vdw_energy:          -30.592117
##########                      Grid_es_energy:           -1.081568
##########           Internal_energy_repulsive:           10.827538

@<TRIPOS>MOLECULE
ZINC001045438664
 50 53 1 0 0
SMALL
USER_CHARGES


@<TRIPOS>ATOM
      1 C1         -9.1265   -3.8799   59.3475 C.3     1  ZINC001045438664   -0.1100
      2 C2        -10.1915   -3.5868   58.3223 C.ar    1  ZINC001045438664    0.2100
      3 C3        -10.2825   -2.3347   57.7477 C.ar    1  ZINC001045438664   -0.3000
      4 C4        -11.2857   -2.1105   56.8022 C.ar    1  ZINC001045438664    0.4500
      5 N5        -11.4180   -0.8715   56.1967 N.pl3   1  ZINC001045438664   -0.7100
      6 C6        -10.9036    0.3278   56.8624 C.3     1  ZINC001045438664    0.1500
      7 H7         -9.9125    0.1220   57.2669 H       1  ZINC001045438664    0.0900
      8 C8        -11.8465    0.7237   58.0003 C.3     1  ZINC001045438664   -0.1300
      9 C9        -11.3092    1.9762   58.6956 C.3     1  ZINC001045438664   -0.1200
     10 C10       -11.2200    3.1217   57.6853 C.3     1  ZINC001045438664   -0.1200
     11 C11       -10.2770    2.7258   56.5473 C.3     1  ZINC001045438664   -0.1300
     12 C12       -10.8144    1.4733   55.8521 C.3     1  ZINC001045438664    0.1400
     13 H13       -11.8054    1.6791   55.4477 H       1  ZINC001045438664    0.1000
     14 N14        -9.9114    1.0942   54.7626 N.am    1  ZINC001045438664   -0.7200
     15 C15        -9.9681    1.7443   53.5833 C.2     1  ZINC001045438664    0.5700
     16 O16       -10.7695    2.6442   53.4233 O.2     1  ZINC001045438664   -0.5200
     17 C17        -9.0557    1.3630   52.4844 C.ar    1  ZINC001045438664   -0.2500
     18 C18        -8.3899    0.1321   52.4964 C.ar    1  ZINC001045438664    0.1900
     19 N19        -7.5838   -0.1683   51.4932 N.ar    1  ZINC001045438664   -0.5200
     20 C20        -7.4033    0.6717   50.4929 C.ar    1  ZINC001045438664    0.3200
     21 N21        -8.0101    1.8413   50.4419 N.ar    1  ZINC001045438664   -0.5200
     22 C22        -8.8379    2.2202   51.3998 C.ar    1  ZINC001045438664    0.2100
     23 N23       -12.1112   -3.1056   56.4920 N.ar    1  ZINC001045438664   -0.5800
     24 C24       -11.9878   -4.2855   57.0657 C.ar    1  ZINC001045438664    0.4000
     25 C25       -12.9429   -5.3879   56.6867 C.3     1  ZINC001045438664   -0.1100
     26 C26       -14.4352   -5.1391   56.9150 C.3     1  ZINC001045438664   -0.1500
     27 C27       -13.8687   -5.1414   55.4938 C.3     1  ZINC001045438664   -0.1500
     28 N28       -11.0490   -4.5299   57.9574 N.ar    1  ZINC001045438664   -0.5600
     29 H29        -8.2294   -4.2429   58.8459 H       1  ZINC001045438664    0.0800
     30 H30        -8.8914   -2.9689   59.8979 H       1  ZINC001045438664    0.0800
     31 H31        -9.4882   -4.6399   60.0402 H       1  ZINC001045438664    0.0800
     32 H32        -9.5954   -1.5481   58.0228 H       1  ZINC001045438664    0.1400
     33 H33       -11.8515   -0.7981   55.3320 H       1  ZINC001045438664    0.4100
     34 H34       -12.8376    0.9296   57.5960 H       1  ZINC001045438664    0.0700
     35 H35       -11.9101   -0.0924   58.7202 H       1  ZINC001045438664    0.0700
     36 H36       -11.9810    2.2583   59.5062 H       1  ZINC001045438664    0.0700
     37 H37       -10.3181    1.7704   59.0999 H       1  ZINC001045438664    0.0700
     38 H38       -12.2111    3.3275   57.2808 H       1  ZINC001045438664    0.0700
     39 H39       -10.8372    4.0141   58.1805 H       1  ZINC001045438664    0.0700
     40 H40       -10.2135    3.5420   55.8276 H       1  ZINC001045438664    0.0800
     41 H41        -9.2859    2.5200   56.9517 H       1  ZINC001045438664    0.0700
     42 H42        -9.2728    0.3753   54.8898 H       1  ZINC001045438664    0.4000
     43 H43        -8.5324   -0.5610   53.3123 H       1  ZINC001045438664    0.1700
     44 H44        -6.7370    0.3929   49.6899 H       1  ZINC001045438664    0.2100
     45 H45        -9.3312    3.1797   51.3510 H       1  ZINC001045438664    0.1800
     46 H46       -12.5729   -6.4022   56.8355 H       1  ZINC001045438664    0.1300
     47 H47       -15.0472   -5.9900   57.2142 H       1  ZINC001045438664    0.1000
     48 H48       -14.7262   -4.1782   57.3393 H       1  ZINC001045438664    0.1100
     49 H49       -13.7870   -4.1819   54.9830 H       1  ZINC001045438664    0.1000
     50 H50       -14.1080   -5.9938   54.8579 H       1  ZINC001045438664    0.1000
@<TRIPOS>BOND
     1     1     2    1
     2     1    29    1
     3     1    30    1
     4     1    31    1
     5     2    28   ar
     6     2     3   ar
     7     3     4   ar
     8     3    32    1
     9     4     5    1
    10     4    23   ar
    11     5     6    1
    12     5    33    1
    13     6     7    1
    14     6    12    1
    15     6     8    1
    16     8     9    1
    17     8    34    1
    18     8    35    1
    19     9    10    1
    20     9    36    1
    21     9    37    1
    22    10    11    1
    23    10    38    1
    24    10    39    1
    25    11    12    1
    26    11    40    1
    27    11    41    1
    28    12    13    1
    29    12    14    1
    30    14    15   am
    31    14    42    1
    32    15    16    2
    33    15    17    1
    34    17    22   ar
    35    17    18   ar
    36    18    19   ar
    37    18    43    1
    38    19    20   ar
    39    20    21   ar
    40    20    44    1
    41    21    22   ar
    42    22    45    1
    43    23    24   ar
    44    24    25    1
    45    24    28   ar
    46    25    27    1
    47    25    26    1
    48    25    46    1
    49    26    27    1
    50    26    47    1
    51    26    48    1
    52    27    49    1
    53    27    50    1
@<TRIPOS>SUBSTRUCTURE
     1 ZINC001045438664        1 TEMP              0 ****  ****    0 ROOT


##########                                Name:    ZINC000626935317
##########                DOCK_Rotatable_Bonds:                   6
##########                         Heavy_Atoms:                  25
##########                    Molecular_Weight:             366.441
##########                DOCK_Rotatable_Bonds:                   6
##########                       Formal_Charge:          -0.0200006
##########                     HBond_Acceptors:                   9
##########                        HBond_Donors:                   2
##########                         Heavy_Atoms:                  25
##########                          Grid_Score:          -31.664061
##########                     Grid_vdw_energy:          -31.222309
##########                      Grid_es_energy:           -0.441752
##########           Internal_energy_repulsive:           12.850256

@<TRIPOS>MOLECULE
ZINC000626935317
 47 49 1 0 0
SMALL
USER_CHARGES


@<TRIPOS>ATOM
      1 C1        -15.1617   -3.3619   54.5799 C.3     1  ZINC000626935317    0.0900
      2 N2        -14.1416   -3.4703   55.6259 N.am    1  ZINC000626935317   -0.6200
      3 C3        -14.2147   -4.3106   56.6725 C.2     1  ZINC000626935317    0.5200
      4 O4        -15.1311   -5.0758   56.8862 O.2     1  ZINC000626935317   -0.5200
      5 C5        -12.9876   -4.1633   57.5448 C.3     1  ZINC000626935317   -0.1500
      6 C6        -11.9740   -3.4131   56.6498 C.3     1  ZINC000626935317   -0.1200
      7 H7        -11.3266   -4.1134   56.1221 H       1  ZINC000626935317    0.1200
      8 C8        -11.1609   -2.4353   57.4584 C.2     1  ZINC000626935317    0.5300
      9 O9        -10.7598   -1.4114   56.9471 O.2     1  ZINC000626935317   -0.5200
     10 N10       -10.8794   -2.6989   58.7499 N.am    1  ZINC000626935317   -0.7100
     11 C11       -10.0874   -1.7493   59.5355 C.3     1  ZINC000626935317    0.1200
     12 C12       -10.8949   -0.5405   60.0371 C.3     1  ZINC000626935317   -0.1600
     13 C13       -11.2255   -1.3780   61.2837 C.3     1  ZINC000626935317    0.1200
     14 N14       -12.4356   -2.1912   61.1404 N.am    1  ZINC000626935317   -1.1100
     15 S15       -13.8965   -1.5980   61.6465 S.o2    1  ZINC000626935317    2.6100
     16 C16       -14.1418   -0.0962   60.6589 C.3     1  ZINC000626935317   -0.6700
     17 O17       -14.8310   -2.6002   61.2703 O.2     1  ZINC000626935317   -0.9500
     18 O18       -13.6865   -1.2678   63.0125 O.2     1  ZINC000626935317   -0.9500
     19 C19        -9.9260   -2.1538   61.0104 C.3     1  ZINC000626935317   -0.1600
     20 C20       -12.9056   -2.6797   55.6623 C.3     1  ZINC000626935317    0.2000
     21 H21       -13.1194   -1.6732   56.0221 H       1  ZINC000626935317    0.1100
     22 C22       -12.2742   -2.6210   54.2953 C.ar    1  ZINC000626935317   -0.1600
     23 C23       -12.1079   -3.7772   53.5487 C.ar    1  ZINC000626935317   -0.0500
     24 C24       -11.5223   -3.6752   52.2958 C.ar    1  ZINC000626935317   -0.1700
     25 C25       -11.1270   -2.4335   51.8363 C.ar    1  ZINC000626935317    0.1000
     26 N26       -11.3009   -1.3543   52.5742 N.ar    1  ZINC000626935317   -0.4800
     27 C27       -11.8587   -1.4129   53.7676 C.ar    1  ZINC000626935317    0.1200
     28 H28       -14.9337   -4.0620   53.7762 H       1  ZINC000626935317    0.0600
     29 H29       -16.1395   -3.5972   55.0002 H       1  ZINC000626935317    0.0800
     30 H30       -15.1708   -2.3459   54.1852 H       1  ZINC000626935317    0.0700
     31 H31       -13.2194   -3.5763   58.4334 H       1  ZINC000626935317    0.1100
     32 H32       -12.5983   -5.1423   57.8241 H       1  ZINC000626935317    0.1200
     33 H33       -11.2012   -3.5174   59.1592 H       1  ZINC000626935317    0.4000
     34 H34        -9.1489   -1.4787   59.0518 H       1  ZINC000626935317    0.1100
     35 H35       -10.2825    0.3358   60.2496 H       1  ZINC000626935317    0.1100
     36 H36       -11.7650   -0.3110   59.4219 H       1  ZINC000626935317    0.0800
     37 H37       -11.2072   -0.8061   62.2114 H       1  ZINC000626935317    0.1100
     38 H38       -12.3811   -3.0772   60.7491 H       1  ZINC000626935317    0.4100
     39 H39       -14.1524   -0.3552   59.6002 H       1  ZINC000626935317    0.1300
     40 H40       -15.0913    0.3656   60.9296 H       1  ZINC000626935317    0.1300
     41 H41       -13.3290    0.6035   60.8538 H       1  ZINC000626935317    0.1300
     42 H42       -10.0139   -3.2268   61.1810 H       1  ZINC000626935317    0.0900
     43 H43        -9.0488   -1.7185   61.4890 H       1  ZINC000626935317    0.1100
     44 H44       -12.4263   -4.7345   53.9338 H       1  ZINC000626935317    0.1400
     45 H45       -11.3770   -4.5553   51.6869 H       1  ZINC000626935317    0.1400
     46 H46       -10.6699   -2.3456   50.8617 H       1  ZINC000626935317    0.1600
     47 H47       -11.9845   -0.5076   54.3430 H       1  ZINC000626935317    0.1500
@<TRIPOS>BOND
     1     1     2    1
     2     1    28    1
     3     1    29    1
     4     1    30    1
     5     2    20    1
     6     2     3   am
     7     3     4    2
     8     3     5    1
     9     5     6    1
    10     5    31    1
    11     5    32    1
    12     6     7    1
    13     6     8    1
    14     6    20    1
    15     8     9    2
    16     8    10   am
    17    10    11    1
    18    10    33    1
    19    11    19    1
    20    11    12    1
    21    11    34    1
    22    12    13    1
    23    12    35    1
    24    12    36    1
    25    13    14    1
    26    13    19    1
    27    13    37    1
    28    14    15   am
    29    14    38    1
    30    15    16    1
    31    15    17    2
    32    15    18    2
    33    16    39    1
    34    16    40    1
    35    16    41    1
    36    19    42    1
    37    19    43    1
    38    20    21    1
    39    20    22    1
    40    22    27   ar
    41    22    23   ar
    42    23    24   ar
    43    23    44    1
    44    24    25   ar
    45    24    45    1
    46    25    26   ar
    47    25    46    1
    48    26    27   ar
    49    27    47    1
@<TRIPOS>SUBSTRUCTURE
     1 ZINC000626935317        1 TEMP              0 ****  ****    0 ROOT


##########                                Name:    ZINC000546115054
##########                DOCK_Rotatable_Bonds:                  10
##########                         Heavy_Atoms:                  26
##########                    Molecular_Weight:             363.457
##########                DOCK_Rotatable_Bonds:                  10
##########                       Formal_Charge:        -4.39584e-07
##########                     HBond_Acceptors:                   7
##########                        HBond_Donors:                   2
##########                         Heavy_Atoms:                  26
##########                          Grid_Score:          -31.657345
##########                     Grid_vdw_energy:          -30.931772
##########                      Grid_es_energy:           -0.725572
##########           Internal_energy_repulsive:           29.635477

@<TRIPOS>MOLECULE
ZINC000546115054
 55 56 1 0 0
SMALL
USER_CHARGES


@<TRIPOS>ATOM
      1 C1        -14.2571    0.9081   64.3405 C.3     1  ZINC000546115054   -0.1500
      2 C2        -13.0929    1.2667   65.2664 C.3     1  ZINC000546115054    0.0600
      3 O3        -11.8691    1.2285   64.5295 O.3     1  ZINC000546115054   -0.3700
      4 C4        -10.6982    1.2027   65.3483 C.3     1  ZINC000546115054    0.0500
      5 H5        -10.7630    0.3715   66.0504 H       1  ZINC000546115054    0.0700
      6 C6        -10.5861    2.5187   66.1225 C.3     1  ZINC000546115054    0.0400
      7 O7         -9.3847    2.5139   66.8960 O.3     1  ZINC000546115054   -0.3700
      8 C8         -8.1906    2.4047   66.1186 C.3     1  ZINC000546115054    0.0600
      9 C9         -8.2064    1.0842   65.3443 C.3     1  ZINC000546115054   -0.1600
     10 C10        -9.4592    1.0308   64.4643 C.3     1  ZINC000546115054    0.1700
     11 H11        -9.4230    1.8348   63.7292 H       1  ZINC000546115054    0.1000
     12 N12        -9.5194   -0.2608   63.7755 N.am    1  ZINC000546115054   -0.7300
     13 C13        -9.9512   -0.3250   62.5004 C.2     1  ZINC000546115054    0.7200
     14 O14       -10.2920    0.6888   61.9222 O.2     1  ZINC000546115054   -0.5900
     15 N15       -10.0051   -1.5130   61.8662 N.am    1  ZINC000546115054   -0.7200
     16 C16       -10.4761   -1.5830   60.4807 C.3     1  ZINC000546115054    0.1600
     17 H17       -10.1783   -0.6789   59.9497 H       1  ZINC000546115054    0.1200
     18 C18        -9.8607   -2.8039   59.7939 C.3     1  ZINC000546115054   -0.1000
     19 C19       -10.4949   -2.9914   58.4398 C.ar    1  ZINC000546115054   -0.0800
     20 C20       -10.5672   -1.9297   57.5574 C.ar    1  ZINC000546115054   -0.1100
     21 C21       -11.1490   -2.1018   56.3154 C.ar    1  ZINC000546115054   -0.1200
     22 C22       -11.6582   -3.3355   55.9555 C.ar    1  ZINC000546115054   -0.1200
     23 C23       -11.5851   -4.3974   56.8375 C.ar    1  ZINC000546115054   -0.1200
     24 C24       -10.9994   -4.2266   58.0779 C.ar    1  ZINC000546115054   -0.1100
     25 C25       -11.9782   -1.7025   60.4662 C.2     1  ZINC000546115054    0.5000
     26 O26       -12.5132   -2.6825   60.9397 O.2     1  ZINC000546115054   -0.5200
     27 N27       -12.7272   -0.7202   59.9270 N.am    1  ZINC000546115054   -0.6200
     28 C28       -12.0810    0.4628   59.3535 C.3     1  ZINC000546115054    0.0800
     29 C29       -14.1876   -0.8356   59.9146 C.3     1  ZINC000546115054    0.0700
     30 H30       -15.1906    0.9372   64.9026 H       1  ZINC000546115054    0.0700
     31 H31       -14.3038    1.6253   63.5211 H       1  ZINC000546115054    0.0600
     32 H32       -14.1062   -0.0937   63.9384 H       1  ZINC000546115054    0.0600
     33 H33       -13.2438    2.2685   65.6686 H       1  ZINC000546115054    0.0500
     34 H34       -13.0462    0.5495   66.0858 H       1  ZINC000546115054    0.0500
     35 H35       -10.5634    3.3524   65.4208 H       1  ZINC000546115054    0.0600
     36 H36       -11.4449    2.6247   66.7854 H       1  ZINC000546115054    0.1000
     37 H37        -8.1365    3.2371   65.4168 H       1  ZINC000546115054    0.0600
     38 H38        -7.3236    2.4288   66.7787 H       1  ZINC000546115054    0.1000
     39 H39        -7.3175    1.0192   64.7169 H       1  ZINC000546115054    0.0900
     40 H40        -8.2197    0.2505   66.0463 H       1  ZINC000546115054    0.0800
     41 H41        -9.2488   -1.0698   64.2372 H       1  ZINC000546115054    0.3900
     42 H42        -9.7321   -2.3216   62.3270 H       1  ZINC000546115054    0.4000
     43 H43        -8.7880   -2.6514   59.6747 H       1  ZINC000546115054    0.0900
     44 H44       -10.0362   -3.6904   60.4032 H       1  ZINC000546115054    0.1100
     45 H45       -10.1694   -0.9659   57.8386 H       1  ZINC000546115054    0.1200
     46 H46       -11.2061   -1.2722   55.6262 H       1  ZINC000546115054    0.1200
     47 H47       -12.1134   -3.4697   54.9853 H       1  ZINC000546115054    0.1200
     48 H48       -11.9832   -5.3612   56.5564 H       1  ZINC000546115054    0.1200
     49 H49       -10.9423   -5.0562   58.7671 H       1  ZINC000546115054    0.1200
     50 H50       -11.8760    0.2886   58.2972 H       1  ZINC000546115054    0.0600
     51 H51       -12.7408    1.3240   59.4584 H       1  ZINC000546115054    0.0700
     52 H52       -11.1453    0.6559   59.8782 H       1  ZINC000546115054    0.0800
     53 H53       -14.5946   -0.3967   60.8255 H       1  ZINC000546115054    0.0600
     54 H54       -14.5863   -0.3086   59.0478 H       1  ZINC000546115054    0.0800
     55 H55       -14.4686   -1.8873   59.8612 H       1  ZINC000546115054    0.0700
@<TRIPOS>BOND
     1     1     2    1
     2     1    30    1
     3     1    31    1
     4     1    32    1
     5     2     3    1
     6     2    33    1
     7     2    34    1
     8     3     4    1
     9     4     5    1
    10     4    10    1
    11     4     6    1
    12     6     7    1
    13     6    35    1
    14     6    36    1
    15     7     8    1
    16     8     9    1
    17     8    37    1
    18     8    38    1
    19     9    10    1
    20     9    39    1
    21     9    40    1
    22    10    11    1
    23    10    12    1
    24    12    13   am
    25    12    41    1
    26    13    14    2
    27    13    15   am
    28    15    16    1
    29    15    42    1
    30    16    17    1
    31    16    18    1
    32    16    25    1
    33    18    19    1
    34    18    43    1
    35    18    44    1
    36    19    24   ar
    37    19    20   ar
    38    20    21   ar
    39    20    45    1
    40    21    22   ar
    41    21    46    1
    42    22    23   ar
    43    22    47    1
    44    23    24   ar
    45    23    48    1
    46    24    49    1
    47    25    26    2
    48    25    27   am
    49    27    28    1
    50    27    29    1
    51    28    50    1
    52    28    51    1
    53    28    52    1
    54    29    53    1
    55    29    54    1
    56    29    55    1
@<TRIPOS>SUBSTRUCTURE
     1 ZINC000546115054        1 TEMP              0 ****  ****    0 ROOT


##########                                Name:    ZINC000530457945
##########                DOCK_Rotatable_Bonds:                   4
##########                         Heavy_Atoms:                  25
##########                    Molecular_Weight:             355.827
##########                DOCK_Rotatable_Bonds:                   4
##########                       Formal_Charge:           0.0199997
##########                     HBond_Acceptors:                   7
##########                        HBond_Donors:                   1
##########                         Heavy_Atoms:                  25
##########                          Grid_Score:          -31.656017
##########                     Grid_vdw_energy:          -31.772812
##########                      Grid_es_energy:            0.116794
##########           Internal_energy_repulsive:           29.810530

@<TRIPOS>MOLECULE
ZINC000530457945
 43 46 1 0 0
SMALL
USER_CHARGES


@<TRIPOS>ATOM
      1 C1         -2.8955    2.3226   47.1384 C.3     1  ZINC000530457945   -0.1700
      2 C2         -2.4076    1.6279   48.4112 C.3     1  ZINC000530457945    0.0900
      3 H3         -2.9050    0.6643   48.5215 H       1  ZINC000530457945    0.1100
      4 C4         -2.7025    2.5147   49.6393 C.3     1  ZINC000530457945   -0.1200
      5 H5         -2.7984    3.5600   49.3458 H       1  ZINC000530457945    0.1100
      6 C6         -3.9470    2.0460   50.3483 C.2     1  ZINC000530457945    0.5300
      7 O7         -4.0323    2.1464   51.5539 O.2     1  ZINC000530457945   -0.4700
      8 N8         -4.9652    1.5153   49.6424 N.am    1  ZINC000530457945   -0.6200
      9 C9         -6.1179    1.0794   50.2995 C.2     1  ZINC000530457945    0.4800
     10 N10        -6.3772   -0.1684   50.6338 N.2     1  ZINC000530457945   -0.3000
     11 N11        -7.6267   -0.1730   51.2701 N.pl3   1  ZINC000530457945   -0.2800
     12 C12        -8.3862   -1.1586   51.8168 C.2     1  ZINC000530457945    0.1400
     13 C13        -9.5834   -0.8731   52.3793 C.2     1  ZINC000530457945   -0.0800
     14 Cl14      -10.5396   -2.1453   53.0727 Cl      1  ZINC000530457945   -0.0200
     15 C15       -10.0537    0.4487   52.4042 C.2     1  ZINC000530457945   -0.0500
     16 C16        -9.2980    1.4421   51.8587 C.2     1  ZINC000530457945   -0.0900
     17 C17        -8.0572    1.1232   51.2789 C.2     1  ZINC000530457945    0.3000
     18 N18        -7.1206    1.8601   50.6895 N.2     1  ZINC000530457945   -0.5500
     19 C19        -1.4487    2.3076   50.5291 C.3     1  ZINC000530457945   -0.1200
     20 C20        -0.3280    2.1840   49.4669 C.3     1  ZINC000530457945    0.0400
     21 N21        -0.9473    1.4342   48.3487 N.3     1  ZINC000530457945   -0.4900
     22 C22        -0.4384    1.8586   47.1191 C.ar    1  ZINC000530457945    0.1000
     23 C23        -0.2648    3.2136   46.8678 C.ar    1  ZINC000530457945   -0.1600
     24 C24         0.2391    3.6297   45.6511 C.ar    1  ZINC000530457945   -0.1100
     25 C25         0.5703    2.6990   44.6834 C.ar    1  ZINC000530457945   -0.1300
     26 C26         0.3987    1.3493   44.9303 C.ar    1  ZINC000530457945   -0.1100
     27 C27        -0.0993    0.9260   46.1469 C.ar    1  ZINC000530457945   -0.1000
     28 H28        -2.5744    1.7518   46.2670 H       1  ZINC000530457945    0.0700
     29 H29        -3.9837    2.3836   47.1520 H       1  ZINC000530457945    0.0600
     30 H30        -2.4759    3.3274   47.0892 H       1  ZINC000530457945    0.0600
     31 H31        -4.8974    1.4361   48.6780 H       1  ZINC000530457945    0.4300
     32 H32        -8.0313   -2.1786   51.8017 H       1  ZINC000530457945    0.1800
     33 H33       -11.0092    0.6769   52.8527 H       1  ZINC000530457945    0.1600
     34 H34        -9.6483    2.4636   51.8708 H       1  ZINC000530457945    0.1700
     35 H35        -1.2813    3.1697   51.1747 H       1  ZINC000530457945    0.0900
     36 H36        -1.5331    1.3929   51.1159 H       1  ZINC000530457945    0.0900
     37 H37        -0.0107    3.1720   49.1333 H       1  ZINC000530457945    0.0700
     38 H38         0.5184    1.6290   49.8711 H       1  ZINC000530457945    0.0900
     39 H39        -0.5238    3.9410   47.6228 H       1  ZINC000530457945    0.1200
     40 H40         0.3744    4.6831   45.4550 H       1  ZINC000530457945    0.1200
     41 H41         0.9635    3.0270   43.7325 H       1  ZINC000530457945    0.1200
     42 H42         0.6583    0.6249   44.1723 H       1  ZINC000530457945    0.1300
     43 H43        -0.2328   -0.1283   46.3392 H       1  ZINC000530457945    0.1300
@<TRIPOS>BOND
     1     1     2    1
     2     1    28    1
     3     1    29    1
     4     1    30    1
     5     2     3    1
     6     2    21    1
     7     2     4    1
     8     4     5    1
     9     4     6    1
    10     4    19    1
    11     6     7    2
    12     6     8   am
    13     8     9    1
    14     8    31    1
    15     9    18    1
    16     9    10    2
    17    10    11    1
    18    11    17    1
    19    11    12    1
    20    12    13    2
    21    12    32    1
    22    13    14    1
    23    13    15    1
    24    15    16    2
    25    15    33    1
    26    16    17    1
    27    16    34    1
    28    17    18    2
    29    19    20    1
    30    19    35    1
    31    19    36    1
    32    20    21    1
    33    20    37    1
    34    20    38    1
    35    21    22    1
    36    22    27   ar
    37    22    23   ar
    38    23    24   ar
    39    23    39    1
    40    24    25   ar
    41    24    40    1
    42    25    26   ar
    43    25    41    1
    44    26    27   ar
    45    26    42    1
    46    27    43    1
@<TRIPOS>SUBSTRUCTURE
     1 ZINC000530457945        1 TEMP              0 ****  ****    0 ROOT


##########                                Name:    ZINC000462219577
##########                DOCK_Rotatable_Bonds:                   8
##########                         Heavy_Atoms:                  31
##########                    Molecular_Weight:             418.539
##########                DOCK_Rotatable_Bonds:                   8
##########                       Formal_Charge:         -0.00999914
##########                     HBond_Acceptors:                   6
##########                        HBond_Donors:                   2
##########                         Heavy_Atoms:                  31
##########                          Grid_Score:          -31.641975
##########                     Grid_vdw_energy:          -31.273264
##########                      Grid_es_energy:           -0.368712
##########           Internal_energy_repulsive:           17.347107

@<TRIPOS>MOLECULE
ZINC000462219577
 61 64 1 0 0
SMALL
USER_CHARGES


@<TRIPOS>ATOM
      1 C1        -16.6552   -2.7548   55.0849 C.3     1  ZINC000462219577   -0.0700
      2 C2        -15.1836   -2.7851   55.4088 C.2     1  ZINC000462219577    0.0800
      3 N3        -14.6623   -2.7834   56.6092 N.2     1  ZINC000462219577   -0.2900
      4 N4        -13.2677   -2.8171   56.4811 N.pl3   1  ZINC000462219577   -0.3200
      5 C5        -12.3425   -2.8268   57.5342 C.ar    1  ZINC000462219577    0.1500
      6 C6        -12.5281   -1.9960   58.6308 C.ar    1  ZINC000462219577   -0.1100
      7 C7        -11.6147   -2.0078   59.6669 C.ar    1  ZINC000462219577   -0.1000
      8 C8        -10.5160   -2.8457   59.6123 C.ar    1  ZINC000462219577   -0.1200
      9 C9        -10.3282   -3.6741   58.5211 C.ar    1  ZINC000462219577   -0.1000
     10 C10       -11.2417   -3.6715   57.4852 C.ar    1  ZINC000462219577   -0.1300
     11 C11       -12.9721   -2.8390   55.1617 C.2     1  ZINC000462219577    0.0900
     12 C12       -11.5907   -2.8779   54.5610 C.3     1  ZINC000462219577   -0.0800
     13 C13       -11.5775   -2.0729   53.2599 C.3     1  ZINC000462219577    0.1700
     14 H14       -12.3777   -1.3331   53.2823 H       1  ZINC000462219577    0.1000
     15 C15       -11.7885   -3.0166   52.0741 C.3     1  ZINC000462219577   -0.1600
     16 N16       -10.2875   -1.3930   53.1194 N.am    1  ZINC000462219577   -0.7400
     17 C17       -10.2362   -0.1407   52.6237 C.2     1  ZINC000462219577    0.7100
     18 O18       -11.2608    0.4252   52.2946 O.2     1  ZINC000462219577   -0.5800
     19 N19        -9.0493    0.4843   52.4929 N.am    1  ZINC000462219577   -0.7400
     20 C20        -8.9937    1.8460   51.9558 C.3     1  ZINC000462219577    0.1600
     21 H21        -9.8623    2.0236   51.3217 H       1  ZINC000462219577    0.1000
     22 C22        -8.9880    2.8525   53.1106 C.3     1  ZINC000462219577   -0.1700
     23 C23        -7.7256    2.6453   53.9515 C.3     1  ZINC000462219577    0.0700
     24 O24        -6.5722    2.7915   53.1207 O.3     1  ZINC000462219577   -0.3700
     25 C25        -6.4997    1.8460   52.0516 C.3     1  ZINC000462219577    0.1400
     26 H26        -6.4953    0.8353   52.4597 H       1  ZINC000462219577    0.0600
     27 C27        -5.2359    2.0749   51.2631 C.ar    1  ZINC000462219577   -0.0900
     28 C28        -4.5556    3.2726   51.3800 C.ar    1  ZINC000462219577   -0.0900
     29 C29        -3.3965    3.4825   50.6568 C.ar    1  ZINC000462219577   -0.1200
     30 C30        -2.9174    2.4947   49.8168 C.ar    1  ZINC000462219577   -0.1200
     31 C31        -3.5972    1.2967   49.7005 C.ar    1  ZINC000462219577   -0.1200
     32 C32        -4.7540    1.0851   50.4271 C.ar    1  ZINC000462219577   -0.1100
     33 C33        -7.7138    2.0203   51.1324 C.3     1  ZINC000462219577   -0.1500
     34 C34       -14.1398   -2.8260   54.4780 C.2     1  ZINC000462219577   -0.2600
     35 H35       -17.0348   -3.7747   55.0240 H       1  ZINC000462219577    0.0800
     36 H36       -17.1883   -2.2146   55.8673 H       1  ZINC000462219577    0.0700
     37 H37       -16.8066   -2.2530   54.1293 H       1  ZINC000462219577    0.0800
     38 H38       -13.3856   -1.3408   58.6738 H       1  ZINC000462219577    0.1300
     39 H39       -11.7585   -1.3617   60.5202 H       1  ZINC000462219577    0.1300
     40 H40        -9.8030   -2.8529   60.4234 H       1  ZINC000462219577    0.1300
     41 H41        -9.4689   -4.3268   58.4810 H       1  ZINC000462219577    0.1300
     42 H42       -11.0945   -4.3188   56.6332 H       1  ZINC000462219577    0.1300
     43 H43       -10.8769   -2.4462   55.2626 H       1  ZINC000462219577    0.0900
     44 H44       -11.3145   -3.9113   54.3515 H       1  ZINC000462219577    0.1100
     45 H45       -10.9883   -3.7564   52.0517 H       1  ZINC000462219577    0.0600
     46 H46       -12.7483   -3.5224   52.1786 H       1  ZINC000462219577    0.0700
     47 H47       -11.7790   -2.4430   51.1472 H       1  ZINC000462219577    0.0700
     48 H48        -9.4703   -1.8440   53.3831 H       1  ZINC000462219577    0.3900
     49 H49        -8.2318    0.0323   52.7545 H       1  ZINC000462219577    0.3900
     50 H50        -8.9967    3.8663   52.7102 H       1  ZINC000462219577    0.0800
     51 H51        -9.8695    2.6980   53.7328 H       1  ZINC000462219577    0.0800
     52 H52        -7.6949    3.3869   54.7498 H       1  ZINC000462219577    0.1000
     53 H53        -7.7373    1.6451   54.3846 H       1  ZINC000462219577    0.0500
     54 H54        -4.9299    4.0443   52.0363 H       1  ZINC000462219577    0.1300
     55 H55        -2.8653    4.4185   50.7477 H       1  ZINC000462219577    0.1200
     56 H56        -2.0121    2.6590   49.2512 H       1  ZINC000462219577    0.1200
     57 H57        -3.2230    0.5251   49.0440 H       1  ZINC000462219577    0.1200
     58 H58        -5.2852    0.1492   50.3361 H       1  ZINC000462219577    0.1200
     59 H59        -7.6826    1.2708   50.3416 H       1  ZINC000462219577    0.0800
     60 H60        -7.6970    3.0172   50.6918 H       1  ZINC000462219577    0.0900
     61 H61       -14.2469   -2.8377   53.4033 H       1  ZINC000462219577    0.1500
@<TRIPOS>BOND
     1     1     2    1
     2     1    35    1
     3     1    36    1
     4     1    37    1
     5     2    34    1
     6     2     3    2
     7     3     4    1
     8     4     5    1
     9     4    11    1
    10     5    10   ar
    11     5     6   ar
    12     6     7   ar
    13     6    38    1
    14     7     8   ar
    15     7    39    1
    16     8     9   ar
    17     8    40    1
    18     9    10   ar
    19     9    41    1
    20    10    42    1
    21    11    12    1
    22    11    34    2
    23    12    13    1
    24    12    43    1
    25    12    44    1
    26    13    14    1
    27    13    15    1
    28    13    16    1
    29    15    45    1
    30    15    46    1
    31    15    47    1
    32    16    17   am
    33    16    48    1
    34    17    18    2
    35    17    19   am
    36    19    20    1
    37    19    49    1
    38    20    21    1
    39    20    33    1
    40    20    22    1
    41    22    23    1
    42    22    50    1
    43    22    51    1
    44    23    24    1
    45    23    52    1
    46    23    53    1
    47    24    25    1
    48    25    26    1
    49    25    27    1
    50    25    33    1
    51    27    32   ar
    52    27    28   ar
    53    28    29   ar
    54    28    54    1
    55    29    30   ar
    56    29    55    1
    57    30    31   ar
    58    30    56    1
    59    31    32   ar
    60    31    57    1
    61    32    58    1
    62    33    59    1
    63    33    60    1
    64    34    61    1
@<TRIPOS>SUBSTRUCTURE
     1 ZINC000462219577        1 TEMP              0 ****  ****    0 ROOT


##########                                Name:    ZINC000364058410
##########                DOCK_Rotatable_Bonds:                   5
##########                         Heavy_Atoms:                  25
##########                    Molecular_Weight:             358.464
##########                DOCK_Rotatable_Bonds:                   5
##########                       Formal_Charge:           0.0100002
##########                     HBond_Acceptors:                   7
##########                        HBond_Donors:                   0
##########                         Heavy_Atoms:                  25
##########                          Grid_Score:          -31.633236
##########                     Grid_vdw_energy:          -30.580845
##########                      Grid_es_energy:           -1.052392
##########           Internal_energy_repulsive:           61.133801

@<TRIPOS>MOLECULE
ZINC000364058410
 47 50 1 0 0
SMALL
USER_CHARGES


@<TRIPOS>ATOM
      1 C1        -15.7376    0.1778   48.8807 C.3     1  ZINC000364058410   -0.0700
      2 C2        -14.9104   -0.5818   49.8856 C.2     1  ZINC000364058410   -0.2500
      3 C3        -13.7135   -0.1965   50.3853 C.2     1  ZINC000364058410    0.0800
      4 N4        -13.3043   -1.1469   51.2516 N.pl3   1  ZINC000364058410   -0.3600
      5 C5        -12.0578   -1.1326   52.0213 C.3     1  ZINC000364058410    0.1300
      6 C6        -12.2686   -0.9936   53.5399 C.3     1  ZINC000364058410    0.1100
      7 N7        -12.2969   -2.4688   53.5698 N.am    1  ZINC000364058410   -0.6500
      8 C8        -12.8330   -3.3867   54.3984 C.2     1  ZINC000364058410    0.5600
      9 O9        -12.6907   -4.5687   54.1672 O.2     1  ZINC000364058410   -0.5000
     10 C10       -13.6092   -2.9443   55.6119 C.3     1  ZINC000364058410    0.1400
     11 H11       -14.0121   -1.9455   55.4439 H       1  ZINC000364058410    0.0900
     12 C12       -14.7578   -3.9241   55.8722 C.3     1  ZINC000364058410   -0.1200
     13 C13       -15.4555   -3.5498   57.1818 C.3     1  ZINC000364058410   -0.1200
     14 C14       -14.4602   -3.6535   58.3398 C.3     1  ZINC000364058410   -0.1400
     15 C15       -13.3084   -2.6706   58.1074 C.3     1  ZINC000364058410    0.1000
     16 N16       -12.7234   -2.9274   56.7840 N.am    1  ZINC000364058410   -0.6000
     17 C17       -11.4007   -3.1482   56.6490 C.2     1  ZINC000364058410    0.5900
     18 O18       -10.9285   -3.3597   55.5474 O.2     1  ZINC000364058410   -0.4900
     19 C19       -10.5310   -3.1337   57.8288 C.2     1  ZINC000364058410   -0.2600
     20 C20        -9.9374   -2.0245   58.3623 C.2     1  ZINC000364058410   -0.0600
     21 C21        -9.1721   -2.2977   59.4711 C.2     1  ZINC000364058410   -0.1400
     22 C22        -9.1387   -3.5851   59.8347 C.2     1  ZINC000364058410   -0.2400
     23 S23       -10.0905   -4.5394   58.7886 S.3     1  ZINC000364058410    0.2100
     24 C24       -11.5024   -2.5352   52.3278 C.3     1  ZINC000364058410    0.0900
     25 N25       -14.2822   -2.1494   51.2854 N.2     1  ZINC000364058410   -0.3000
     26 C26       -15.2471   -1.8067   50.4708 C.2     1  ZINC000364058410    0.0500
     27 H27       -16.4114    0.8566   49.4035 H       1  ZINC000364058410    0.0600
     28 H28       -15.0798    0.7508   48.2273 H       1  ZINC000364058410    0.0600
     29 H29       -16.3202   -0.5246   48.2844 H       1  ZINC000364058410    0.0600
     30 H30       -13.1809    0.7093   50.1355 H       1  ZINC000364058410    0.1700
     31 H31       -11.3154   -0.4457   51.6149 H       1  ZINC000364058410    0.1300
     32 H32       -11.4169   -0.5598   54.0638 H       1  ZINC000364058410    0.1100
     33 H33       -13.2173   -0.5304   53.8112 H       1  ZINC000364058410    0.0900
     34 H34       -15.4729   -3.8726   55.0513 H       1  ZINC000364058410    0.0800
     35 H35       -14.3618   -4.9369   55.9474 H       1  ZINC000364058410    0.0800
     36 H36       -15.8294   -2.5281   57.1149 H       1  ZINC000364058410    0.0700
     37 H37       -16.2886   -4.2305   57.3569 H       1  ZINC000364058410    0.0800
     38 H38       -14.9636   -3.4094   59.2752 H       1  ZINC000364058410    0.0800
     39 H39       -14.0672   -4.6688   58.3918 H       1  ZINC000364058410    0.0700
     40 H40       -13.6865   -1.6491   58.1455 H       1  ZINC000364058410    0.0800
     41 H41       -12.5484   -2.8100   58.8763 H       1  ZINC000364058410    0.0900
     42 H42       -10.0573   -1.0321   57.9534 H       1  ZINC000364058410    0.1500
     43 H43        -8.6367   -1.5295   60.0093 H       1  ZINC000364058410    0.1500
     44 H44        -8.5863   -3.9682   60.6800 H       1  ZINC000364058410    0.1700
     45 H45       -11.8394   -3.3030   51.6313 H       1  ZINC000364058410    0.0900
     46 H46       -10.4256   -2.5544   52.4957 H       1  ZINC000364058410    0.1100
     47 H47       -16.1448   -2.3752   50.2779 H       1  ZINC000364058410    0.1800
@<TRIPOS>BOND
     1     1     2    1
     2     1    27    1
     3     1    28    1
     4     1    29    1
     5     2    26    1
     6     2     3    2
     7     3     4    1
     8     3    30    1
     9     4     5    1
    10     4    25    1
    11     5    24    1
    12     5     6    1
    13     5    31    1
    14     6     7    1
    15     6    32    1
    16     6    33    1
    17     7     8   am
    18     7    24    1
    19     8     9    2
    20     8    10    1
    21    10    11    1
    22    10    16    1
    23    10    12    1
    24    12    13    1
    25    12    34    1
    26    12    35    1
    27    13    14    1
    28    13    36    1
    29    13    37    1
    30    14    15    1
    31    14    38    1
    32    14    39    1
    33    15    16    1
    34    15    40    1
    35    15    41    1
    36    16    17   am
    37    17    18    2
    38    17    19    1
    39    19    23    1
    40    19    20    2
    41    20    21    1
    42    20    42    1
    43    21    22    2
    44    21    43    1
    45    22    23    1
    46    22    44    1
    47    24    45    1
    48    24    46    1
    49    25    26    2
    50    26    47    1
@<TRIPOS>SUBSTRUCTURE
     1 ZINC000364058410        1 TEMP              0 ****  ****    0 ROOT


##########                                Name:    ZINC000347662449
##########                DOCK_Rotatable_Bonds:                   5
##########                         Heavy_Atoms:                  23
##########                    Molecular_Weight:              327.45
##########                DOCK_Rotatable_Bonds:                   5
##########                       Formal_Charge:                0.03
##########                     HBond_Acceptors:                   5
##########                        HBond_Donors:                   0
##########                         Heavy_Atoms:                  23
##########                          Grid_Score:          -31.572227
##########                     Grid_vdw_energy:          -30.479109
##########                      Grid_es_energy:           -1.093118
##########           Internal_energy_repulsive:            4.502514

@<TRIPOS>MOLECULE
ZINC000347662449
 44 46 1 0 0
SMALL
USER_CHARGES


@<TRIPOS>ATOM
      1 C1        -11.2510   -1.7504   52.0053 C.2     1  ZINC000347662449   -0.1800
      2 C2        -10.4942   -1.0519   52.8149 C.2     1  ZINC000347662449   -0.1700
      3 C3        -11.1118   -0.0140   53.7160 C.3     1  ZINC000347662449    0.1600
      4 N4        -10.2898    0.1399   54.9189 N.am    1  ZINC000347662449   -0.6200
      5 C5         -9.2047    1.1179   55.0608 C.3     1  ZINC000347662449    0.1100
      6 C6         -8.9351    1.2170   56.5787 C.3     1  ZINC000347662449   -0.1100
      7 C7         -9.4257   -0.1623   57.0766 C.3     1  ZINC000347662449   -0.1200
      8 H8         -8.5963   -0.8681   57.1234 H       1  ZINC000347662449    0.1400
      9 S9        -10.2149   -0.0064   58.6981 S.3     1  ZINC000347662449    0.0300
     10 C10       -10.0673   -1.6661   59.2711 C.2     1  ZINC000347662449    0.1900
     11 N11        -9.8003   -2.7146   58.5277 N.2     1  ZINC000347662449   -0.4500
     12 C12        -9.7641   -3.8121   59.3023 C.2     1  ZINC000347662449   -0.0100
     13 C13       -10.0155   -3.4450   60.5705 C.2     1  ZINC000347662449   -0.0400
     14 N14       -10.2052   -2.0795   60.5634 N.pl3   1  ZINC000347662449   -0.4000
     15 C15       -10.4932   -1.2712   61.6721 C.ar    1  ZINC000347662449    0.1100
     16 C16        -9.5129   -1.0186   62.6219 C.ar    1  ZINC000347662449   -0.1100
     17 C17        -9.7996   -0.2218   63.7134 C.ar    1  ZINC000347662449   -0.1000
     18 C18       -11.0614    0.3239   63.8602 C.ar    1  ZINC000347662449   -0.0800
     19 C19       -11.3708    1.1932   65.0517 C.3     1  ZINC000347662449   -0.1200
     20 C20       -12.0401    0.0740   62.9156 C.ar    1  ZINC000347662449   -0.0700
     21 C21       -13.4142    0.6708   63.0792 C.3     1  ZINC000347662449   -0.1200
     22 C22       -11.7578   -0.7171   61.8193 C.ar    1  ZINC000347662449   -0.1100
     23 C23       -10.4361   -0.5927   56.0363 C.2     1  ZINC000347662449    0.5300
     24 O24       -11.2544   -1.4753   56.1861 O.2     1  ZINC000347662449   -0.4900
     25 H25       -12.3177   -1.5824   51.9837 H       1  ZINC000347662449    0.1000
     26 H26       -10.8079   -2.4912   51.3563 H       1  ZINC000347662449    0.1000
     27 H27        -9.4276   -1.2200   52.8364 H       1  ZINC000347662449    0.1100
     28 H28       -11.1665    0.9386   53.1891 H       1  ZINC000347662449    0.0900
     29 H29       -12.1155   -0.3302   53.9999 H       1  ZINC000347662449    0.0900
     30 H30        -8.3123    0.7692   54.5411 H       1  ZINC000347662449    0.0800
     31 H31        -9.5161    2.0862   54.6690 H       1  ZINC000347662449    0.0900
     32 H32        -7.8716    1.3480   56.7782 H       1  ZINC000347662449    0.1100
     33 H33        -9.5167    2.0228   57.0265 H       1  ZINC000347662449    0.0900
     34 H34        -9.5665   -4.8183   58.9633 H       1  ZINC000347662449    0.1800
     35 H35       -10.0574   -4.0954   61.4317 H       1  ZINC000347662449    0.1800
     36 H36        -8.5272   -1.4449   62.5079 H       1  ZINC000347662449    0.1300
     37 H37        -9.0374   -0.0252   64.4529 H       1  ZINC000347662449    0.1300
     38 H38       -11.1480    2.2326   64.8108 H       1  ZINC000347662449    0.0800
     39 H39       -12.4262    1.0975   65.3069 H       1  ZINC000347662449    0.0700
     40 H40       -10.7620    0.8780   65.8992 H       1  ZINC000347662449    0.0700
     41 H41       -13.4480    1.6446   62.5910 H       1  ZINC000347662449    0.0800
     42 H42       -14.1534    0.0108   62.6252 H       1  ZINC000347662449    0.0700
     43 H43       -13.6352    0.7883   64.1401 H       1  ZINC000347662449    0.0800
     44 H44       -12.5223   -0.9117   61.0818 H       1  ZINC000347662449    0.1300
@<TRIPOS>BOND
     1     1     2    2
     2     1    25    1
     3     1    26    1
     4     2     3    1
     5     2    27    1
     6     3     4    1
     7     3    28    1
     8     3    29    1
     9     4    23   am
    10     4     5    1
    11     5     6    1
    12     5    30    1
    13     5    31    1
    14     6     7    1
    15     6    32    1
    16     6    33    1
    17     7     8    1
    18     7     9    1
    19     7    23    1
    20     9    10    1
    21    10    14    1
    22    10    11    2
    23    11    12    1
    24    12    13    2
    25    12    34    1
    26    13    14    1
    27    13    35    1
    28    14    15    1
    29    15    22   ar
    30    15    16   ar
    31    16    17   ar
    32    16    36    1
    33    17    18   ar
    34    17    37    1
    35    18    19    1
    36    18    20   ar
    37    19    38    1
    38    19    39    1
    39    19    40    1
    40    20    21    1
    41    20    22   ar
    42    21    41    1
    43    21    42    1
    44    21    43    1
    45    22    44    1
    46    23    24    2
@<TRIPOS>SUBSTRUCTURE
     1 ZINC000347662449        1 TEMP              0 ****  ****    0 ROOT


##########                                Name:    ZINC000496437542
##########                DOCK_Rotatable_Bonds:                   7
##########                         Heavy_Atoms:                  24
##########                    Molecular_Weight:             338.447
##########                DOCK_Rotatable_Bonds:                   7
##########                       Formal_Charge:           0.0400002
##########                     HBond_Acceptors:                   6
##########                        HBond_Donors:                   1
##########                         Heavy_Atoms:                  24
##########                          Grid_Score:          -31.545708
##########                     Grid_vdw_energy:          -30.698021
##########                      Grid_es_energy:           -0.847686
##########           Internal_energy_repulsive:           17.606657

@<TRIPOS>MOLECULE
ZINC000496437542
 54 55 1 0 0
SMALL
USER_CHARGES


@<TRIPOS>ATOM
      1 C1        -12.7290   -2.8956   58.5453 C.3     1  ZINC000496437542   -0.1800
      2 C2        -14.1846   -2.4322   58.4576 C.3     1  ZINC000496437542    0.1400
      3 C3        -15.0740   -3.3921   59.2502 C.3     1  ZINC000496437542   -0.1800
      4 C4        -14.3072   -1.0234   59.0417 C.3     1  ZINC000496437542   -0.1400
      5 O5        -14.6052   -2.4184   57.0680 O.3     1  ZINC000496437542   -0.3600
      6 C6        -13.7048   -1.9950   56.1610 C.2     1  ZINC000496437542    0.6600
      7 O7        -13.5095   -0.8055   56.0084 O.2     1  ZINC000496437542   -0.5600
      8 N8        -13.0202   -2.8905   55.4222 N.am    1  ZINC000496437542   -0.6000
      9 C9        -13.2396   -4.3360   55.5892 C.3     1  ZINC000496437542    0.0800
     10 C10       -13.4857   -4.9506   54.2066 C.3     1  ZINC000496437542    0.0500
     11 O11       -12.4273   -4.5667   53.3256 O.3     1  ZINC000496437542   -0.3700
     12 C12       -12.3367   -3.1582   53.0986 C.3     1  ZINC000496437542    0.0700
     13 H13       -13.2829   -2.7920   52.7002 H       1  ZINC000496437542    0.0700
     14 C14       -11.2160   -2.8731   52.0967 C.3     1  ZINC000496437542    0.1300
     15 N15       -10.6623   -1.5406   52.3495 N.am    1  ZINC000496437542   -0.7200
     16 C16        -9.3958   -1.2570   51.9860 C.2     1  ZINC000496437542    0.5600
     17 O17        -8.7131   -2.1070   51.4470 O.2     1  ZINC000496437542   -0.5400
     18 C18        -8.8391    0.0805   52.2414 C.2     1  ZINC000496437542   -0.1900
     19 C19        -7.8068    0.5042   51.5446 C.2     1  ZINC000496437542   -0.0600
     20 C20        -7.2256    1.8788   51.7995 C.3     1  ZINC000496437542   -0.1000
     21 C21        -8.2050    2.9282   51.2687 C.3     1  ZINC000496437542   -0.1100
     22 C22        -9.2581    3.2587   52.3105 C.3     1  ZINC000496437542   -0.1200
     23 C23       -10.2014    2.1093   52.6154 C.3     1  ZINC000496437542   -0.1200
     24 C24        -9.4607    0.9657   53.3008 C.3     1  ZINC000496437542   -0.0800
     25 C25       -12.0358   -2.4516   54.4204 C.3     1  ZINC000496437542    0.1000
     26 H26       -12.6416   -3.8993   58.1293 H       1  ZINC000496437542    0.0900
     27 H27       -12.0954   -2.2118   57.9807 H       1  ZINC000496437542    0.0600
     28 H28       -12.4133   -2.9059   59.5886 H       1  ZINC000496437542    0.0700
     29 H29       -14.7583   -3.4025   60.2934 H       1  ZINC000496437542    0.0700
     30 H30       -16.1110   -3.0620   59.1879 H       1  ZINC000496437542    0.0600
     31 H31       -14.9866   -4.3958   58.8342 H       1  ZINC000496437542    0.0900
     32 H32       -13.6736   -0.3395   58.4770 H       1  ZINC000496437542    0.0700
     33 H33       -15.3442   -0.6933   58.9792 H       1  ZINC000496437542    0.0700
     34 H34       -13.9915   -1.0338   60.0849 H       1  ZINC000496437542    0.0800
     35 H35       -12.3585   -4.7911   56.0418 H       1  ZINC000496437542    0.0800
     36 H36       -14.1083   -4.5044   56.2258 H       1  ZINC000496437542    0.1000
     37 H37       -13.5133   -6.0371   54.2908 H       1  ZINC000496437542    0.1100
     38 H38       -14.4361   -4.5910   53.8123 H       1  ZINC000496437542    0.0600
     39 H39       -10.4302   -3.6203   52.2083 H       1  ZINC000496437542    0.0900
     40 H40       -11.6153   -2.9144   51.0833 H       1  ZINC000496437542    0.0800
     41 H41       -11.2071   -0.8623   52.7783 H       1  ZINC000496437542    0.4000
     42 H42        -7.3718   -0.1315   50.7875 H       1  ZINC000496437542    0.1300
     43 H43        -7.0806    2.0220   52.8703 H       1  ZINC000496437542    0.0800
     44 H44        -6.2710    1.9743   51.2823 H       1  ZINC000496437542    0.0800
     45 H45        -7.6559    3.8346   51.0138 H       1  ZINC000496437542    0.0700
     46 H46        -8.6940    2.5424   50.3742 H       1  ZINC000496437542    0.0700
     47 H47        -8.7556    3.5502   53.2327 H       1  ZINC000496437542    0.0600
     48 H48        -9.8452    4.1055   51.9552 H       1  ZINC000496437542    0.0600
     49 H49       -10.9988    2.4634   53.2687 H       1  ZINC000496437542    0.0700
     50 H50       -10.6363    1.7456   51.6845 H       1  ZINC000496437542    0.0600
     51 H51       -10.1608    0.3828   53.8993 H       1  ZINC000496437542    0.0700
     52 H52        -8.6758    1.3693   53.9406 H       1  ZINC000496437542    0.0800
     53 H53       -12.1049   -1.3724   54.2839 H       1  ZINC000496437542    0.1100
     54 H54       -11.0337   -2.7159   54.7581 H       1  ZINC000496437542    0.0900
@<TRIPOS>BOND
     1     1     2    1
     2     1    26    1
     3     1    27    1
     4     1    28    1
     5     2     3    1
     6     2     4    1
     7     2     5    1
     8     3    29    1
     9     3    30    1
    10     3    31    1
    11     4    32    1
    12     4    33    1
    13     4    34    1
    14     5     6    1
    15     6     7    2
    16     6     8   am
    17     8    25    1
    18     8     9    1
    19     9    10    1
    20     9    35    1
    21     9    36    1
    22    10    11    1
    23    10    37    1
    24    10    38    1
    25    11    12    1
    26    12    13    1
    27    12    14    1
    28    12    25    1
    29    14    15    1
    30    14    39    1
    31    14    40    1
    32    15    16   am
    33    15    41    1
    34    16    17    2
    35    16    18    1
    36    18    24    1
    37    18    19    2
    38    19    20    1
    39    19    42    1
    40    20    21    1
    41    20    43    1
    42    20    44    1
    43    21    22    1
    44    21    45    1
    45    21    46    1
    46    22    23    1
    47    22    47    1
    48    22    48    1
    49    23    24    1
    50    23    49    1
    51    23    50    1
    52    24    51    1
    53    24    52    1
    54    25    53    1
    55    25    54    1
@<TRIPOS>SUBSTRUCTURE
     1 ZINC000496437542        1 TEMP              0 ****  ****    0 ROOT


##########                                Name:    ZINC000330515179
##########                DOCK_Rotatable_Bonds:                   4
##########                         Heavy_Atoms:                  21
##########                    Molecular_Weight:             378.287
##########                DOCK_Rotatable_Bonds:                   4
##########                       Formal_Charge:           0.0200002
##########                     HBond_Acceptors:                   6
##########                        HBond_Donors:                   0
##########                         Heavy_Atoms:                  21
##########                          Grid_Score:          -31.542746
##########                     Grid_vdw_energy:          -30.769350
##########                      Grid_es_energy:           -0.773396
##########           Internal_energy_repulsive:            5.901417

@<TRIPOS>MOLECULE
ZINC000330515179
 41 42 1 0 0
SMALL
USER_CHARGES


@<TRIPOS>ATOM
      1 C1        -14.2833   -5.7108   55.5812 C.3     1  ZINC000330515179    0.0300
      2 O2        -13.5000   -5.9299   56.7562 O.3     1  ZINC000330515179   -0.3800
      3 C3        -12.3049   -5.1486   56.8120 C.3     1  ZINC000330515179    0.0700
      4 C4        -12.6009   -3.8118   57.4950 C.3     1  ZINC000330515179    0.0800
      5 H5        -12.8032   -3.0535   56.7386 H       1  ZINC000330515179    0.0800
      6 C6        -11.3910   -3.3870   58.3351 C.3     1  ZINC000330515179    0.0900
      7 N7        -11.7669   -2.2036   59.1248 N.am    1  ZINC000330515179   -1.0000
      8 S8        -10.8199   -0.8450   59.1281 S.o2    1  ZINC000330515179    2.6900
      9 O9         -9.6438   -1.1741   58.4017 O.2     1  ZINC000330515179   -0.9400
     10 O10       -11.6711    0.2382   58.7795 O.2     1  ZINC000330515179   -0.9500
     11 C11       -10.3149   -0.5653   60.7927 C.ar    1  ZINC000330515179   -0.6700
     12 C12       -10.5725    0.6507   61.3979 C.ar    1  ZINC000330515179   -0.0100
     13 C13       -10.1768    0.8704   62.7039 C.ar    1  ZINC000330515179   -0.1100
     14 C14        -9.5230   -0.1265   63.4053 C.ar    1  ZINC000330515179   -0.0400
     15 Br15       -8.9820    0.1733   65.1923 Br      1  ZINC000330515179   -0.0300
     16 C16        -9.2654   -1.3430   62.7994 C.ar    1  ZINC000330515179   -0.1100
     17 C17        -9.6662   -1.5638   61.4951 C.ar    1  ZINC000330515179   -0.0100
     18 C18       -13.0087   -2.2633   59.9120 C.3     1  ZINC000330515179    0.1000
     19 C19       -14.1397   -2.7429   58.9951 C.3     1  ZINC000330515179    0.1000
     20 C20       -15.3977   -3.0002   59.8271 C.3     1  ZINC000330515179   -0.1400
     21 C21       -14.4332   -1.6718   57.9427 C.3     1  ZINC000330515179   -0.1800
     22 O22       -13.7404   -3.9528   58.3467 O.3     1  ZINC000330515179   -0.3500
     23 H23       -15.1725   -6.3403   55.6147 H       1  ZINC000330515179    0.0900
     24 H24       -14.5812   -4.6634   55.5332 H       1  ZINC000330515179    0.0400
     25 H25       -13.6935   -5.9616   54.6994 H       1  ZINC000330515179    0.0400
     26 H26       -11.5454   -5.6862   57.3797 H       1  ZINC000330515179    0.0600
     27 H27       -11.9418   -4.9672   55.8005 H       1  ZINC000330515179    0.0700
     28 H28       -11.1050   -4.1989   59.0036 H       1  ZINC000330515179    0.0900
     29 H29       -10.5566   -3.1403   57.6785 H       1  ZINC000330515179    0.1000
     30 H30       -11.0826    1.4292   60.8500 H       1  ZINC000330515179    0.1500
     31 H31       -10.3777    1.8205   63.1765 H       1  ZINC000330515179    0.1500
     32 H32        -8.7551   -2.1217   63.3466 H       1  ZINC000330515179    0.1500
     33 H33        -9.4651   -2.5135   61.0219 H       1  ZINC000330515179    0.1500
     34 H34       -12.8856   -2.9621   60.7394 H       1  ZINC000330515179    0.0900
     35 H35       -13.2455   -1.2725   60.2998 H       1  ZINC000330515179    0.1000
     36 H36       -15.6995   -2.0782   60.3240 H       1  ZINC000330515179    0.0800
     37 H37       -16.2015   -3.3411   59.1745 H       1  ZINC000330515179    0.0700
     38 H38       -15.1883   -3.7646   60.5755 H       1  ZINC000330515179    0.0700
     39 H39       -13.5372   -1.4903   57.3492 H       1  ZINC000330515179    0.0600
     40 H40       -15.2375   -2.0135   57.2911 H       1  ZINC000330515179    0.0700
     41 H41       -14.7343   -0.7487   58.4379 H       1  ZINC000330515179    0.0700
@<TRIPOS>BOND
     1     1     2    1
     2     1    23    1
     3     1    24    1
     4     1    25    1
     5     2     3    1
     6     3     4    1
     7     3    26    1
     8     3    27    1
     9     4     5    1
    10     4    22    1
    11     4     6    1
    12     6     7    1
    13     6    28    1
    14     6    29    1
    15     7     8   am
    16     7    18    1
    17     8     9    2
    18     8    10    2
    19     8    11    1
    20    11    17   ar
    21    11    12   ar
    22    12    13   ar
    23    12    30    1
    24    13    14   ar
    25    13    31    1
    26    14    15    1
    27    14    16   ar
    28    16    17   ar
    29    16    32    1
    30    17    33    1
    31    18    19    1
    32    18    34    1
    33    18    35    1
    34    19    20    1
    35    19    21    1
    36    19    22    1
    37    20    36    1
    38    20    37    1
    39    20    38    1
    40    21    39    1
    41    21    40    1
    42    21    41    1
@<TRIPOS>SUBSTRUCTURE
     1 ZINC000330515179        1 TEMP              0 ****  ****    0 ROOT


##########                                Name:    ZINC001058772245
##########                DOCK_Rotatable_Bonds:                  11
##########                         Heavy_Atoms:                  22
##########                    Molecular_Weight:             335.375
##########                DOCK_Rotatable_Bonds:                  11
##########                       Formal_Charge:          0.00999964
##########                     HBond_Acceptors:                   9
##########                        HBond_Donors:                   2
##########                         Heavy_Atoms:                  22
##########                          Grid_Score:          -31.521898
##########                     Grid_vdw_energy:          -30.274406
##########                      Grid_es_energy:           -1.247492
##########           Internal_energy_repulsive:           65.486153

@<TRIPOS>MOLECULE
ZINC001058772245
 41 41 1 0 0
SMALL
USER_CHARGES


@<TRIPOS>ATOM
      1 C1        -14.4178   -3.1405   53.2310 C.3     1  ZINC001058772245   -0.1700
      2 C2        -13.0254   -2.6776   53.6644 C.3     1  ZINC001058772245   -0.1400
      3 C3        -12.6374   -1.4235   52.8786 C.3     1  ZINC001058772245   -0.1500
      4 C4        -13.0365   -2.3636   55.1382 C.2     1  ZINC001058772245    0.5300
      5 O5        -12.8700   -1.2234   55.5166 O.2     1  ZINC001058772245   -0.5200
      6 N6        -13.2314   -3.3499   56.0359 N.am    1  ZINC001058772245   -0.5900
      7 C7        -13.4326   -4.7271   55.5788 C.3     1  ZINC001058772245    0.0800
      8 C8        -14.7258   -5.2805   56.1807 C.3     1  ZINC001058772245    0.0400
      9 O9        -14.4085   -6.2158   57.2134 O.3     1  ZINC001058772245   -0.5700
     10 C10       -13.2422   -3.0446   57.4687 C.3     1  ZINC001058772245    0.1100
     11 C11       -11.8644   -3.3416   58.0639 C.3     1  ZINC001058772245    0.1000
     12 N12       -11.6565   -2.5109   59.2525 N.am    1  ZINC001058772245   -0.7100
     13 C13       -10.4729   -2.5399   59.8964 C.2     1  ZINC001058772245    0.6000
     14 O14        -9.5766   -3.2548   59.4897 O.2     1  ZINC001058772245   -0.5300
     15 C15       -10.2645   -1.7062   61.0923 C.2     1  ZINC001058772245    0.0000
     16 C16        -9.2781   -1.9331   61.9889 C.2     1  ZINC001058772245   -0.2200
     17 S17        -9.3723   -0.7539   63.2228 S.3     1  ZINC001058772245    0.2300
     18 C18       -10.7221   -0.0264   62.4712 C.2     1  ZINC001058772245    0.0000
     19 N19       -11.0287   -0.6520   61.3896 N.2     1  ZINC001058772245   -0.4400
     20 C20       -12.0096   -3.7877   53.3870 C.3     1  ZINC001058772245    0.2900
     21 F21       -11.2638   -3.4635   52.2486 F       1  ZINC001058772245   -0.1900
     22 F22       -11.1519   -3.9198   54.4844 F       1  ZINC001058772245   -0.2000
     23 H23       -14.3510   -3.6354   52.2622 H       1  ZINC001058772245    0.0800
     24 H24       -14.8147   -3.8379   53.9687 H       1  ZINC001058772245    0.0700
     25 H25       -15.0797   -2.2779   53.1535 H       1  ZINC001058772245    0.0900
     26 H26       -13.1878   -0.5666   53.2671 H       1  ZINC001058772245    0.0800
     27 H27       -11.5671   -1.2456   52.9835 H       1  ZINC001058772245    0.0700
     28 H28       -12.8809   -1.5646   51.8256 H       1  ZINC001058772245    0.0900
     29 H29       -13.5024   -4.7424   54.4911 H       1  ZINC001058772245    0.0900
     30 H30       -12.5910   -5.3422   55.8975 H       1  ZINC001058772245    0.1200
     31 H31       -15.3111   -4.4618   56.5993 H       1  ZINC001058772245    0.0600
     32 H32       -15.3037   -5.7800   55.4032 H       1  ZINC001058772245    0.0700
     33 H33       -15.1735   -6.6985   57.5554 H       1  ZINC001058772245    0.3800
     34 H34       -13.4814   -1.9912   57.6140 H       1  ZINC001058772245    0.1000
     35 H35       -13.9927   -3.6595   57.9655 H       1  ZINC001058772245    0.0900
     36 H36       -11.8077   -4.3940   58.3417 H       1  ZINC001058772245    0.0700
     37 H37       -11.0940   -3.1187   57.3256 H       1  ZINC001058772245    0.0700
     38 H38       -12.3707   -1.9399   59.5762 H       1  ZINC001058772245    0.4100
     39 H39        -8.5500   -2.7289   61.9343 H       1  ZINC001058772245    0.1900
     40 H40       -11.2437    0.8403   62.8493 H       1  ZINC001058772245    0.2100
     41 H41       -12.5352   -4.7281   53.2214 H       1  ZINC001058772245    0.1200
@<TRIPOS>BOND
     1     1     2    1
     2     1    23    1
     3     1    24    1
     4     1    25    1
     5     2     3    1
     6     2     4    1
     7     2    20    1
     8     3    26    1
     9     3    27    1
    10     3    28    1
    11     4     5    2
    12     4     6   am
    13     6     7    1
    14     6    10    1
    15     7     8    1
    16     7    29    1
    17     7    30    1
    18     8     9    1
    19     8    31    1
    20     8    32    1
    21     9    33    1
    22    10    11    1
    23    10    34    1
    24    10    35    1
    25    11    12    1
    26    11    36    1
    27    11    37    1
    28    12    13   am
    29    12    38    1
    30    13    14    2
    31    13    15    1
    32    15    19    1
    33    15    16    2
    34    16    17    1
    35    16    39    1
    36    17    18    1
    37    18    19    2
    38    18    40    1
    39    20    21    1
    40    20    22    1
    41    20    41    1
@<TRIPOS>SUBSTRUCTURE
     1 ZINC001058772245        1 TEMP              0 ****  ****    0 ROOT


##########                                Name:    ZINC000885154703
##########                DOCK_Rotatable_Bonds:                   5
##########                         Heavy_Atoms:                  24
##########                    Molecular_Weight:             396.259
##########                DOCK_Rotatable_Bonds:                   5
##########                       Formal_Charge:          -0.0099998
##########                     HBond_Acceptors:                   6
##########                        HBond_Donors:                   1
##########                         Heavy_Atoms:                  24
##########                          Grid_Score:          -31.517250
##########                     Grid_vdw_energy:          -31.043852
##########                      Grid_es_energy:           -0.473398
##########           Internal_energy_repulsive:            8.780956

@<TRIPOS>MOLECULE
ZINC000885154703
 43 45 1 0 0
SMALL
USER_CHARGES


@<TRIPOS>ATOM
      1 C1         -8.1537    2.2832   50.9642 C.3     1  ZINC000885154703   -0.1500
      2 C2         -7.1380    1.7000   51.9487 C.3     1  ZINC000885154703   -0.0300
      3 C3         -5.7645    2.2297   51.6262 C.2     1  ZINC000885154703    0.1700
      4 N4         -5.2221    3.3063   52.1110 N.2     1  ZINC000885154703   -0.3800
      5 O5         -4.1085    3.4577   51.6542 O.3     1  ZINC000885154703    0.0800
      6 C6         -3.8264    2.4616   50.8091 C.2     1  ZINC000885154703    0.1800
      7 C7         -2.5478    2.2784   50.0329 C.3     1  ZINC000885154703    0.0000
      8 H8         -1.8233    1.7269   50.6322 H       1  ZINC000885154703    0.1300
      9 C9         -1.9689    3.6521   49.6361 C.3     1  ZINC000885154703   -0.1200
     10 C10        -1.3811    3.4224   48.2216 C.3     1  ZINC000885154703   -0.1300
     11 C11        -2.4139    2.4674   47.5732 C.3     1  ZINC000885154703    0.1400
     12 H12        -3.2747    3.0277   47.2080 H       1  ZINC000885154703    0.1000
     13 N13        -1.7967    1.7091   46.4823 N.am    1  ZINC000885154703   -0.7100
     14 C14        -1.7677    2.2229   45.2367 C.2     1  ZINC000885154703    0.5700
     15 O15        -2.2550    3.3151   45.0181 O.2     1  ZINC000885154703   -0.5100
     16 C16        -1.1439    1.4592   44.1371 C.ar    1  ZINC000885154703   -0.1600
     17 C17        -1.7257    0.2689   43.6903 C.ar    1  ZINC000885154703    0.1500
     18 F18        -2.8610   -0.1872   44.2631 F       1  ZINC000885154703   -0.1200
     19 C19        -1.1353   -0.4402   42.6597 C.ar    1  ZINC000885154703   -0.1500
     20 C20         0.0260    0.0257   42.0734 C.ar    1  ZINC000885154703   -0.0400
     21 C21         0.6070    1.2045   42.5119 C.ar    1  ZINC000885154703   -0.1100
     22 Br22        2.1963    1.8308   41.7009 Br      1  ZINC000885154703   -0.0300
     23 C23         0.0267    1.9253   43.5347 C.ar    1  ZINC000885154703    0.0100
     24 C24         0.6608    3.2075   44.0091 C.3     1  ZINC000885154703   -0.1300
     25 C25        -2.8306    1.5240   48.7220 C.3     1  ZINC000885154703   -0.1300
     26 N26        -4.8728    1.6716   50.7882 N.2     1  ZINC000885154703   -0.4800
     27 H27        -8.1554    3.3702   51.0451 H       1  ZINC000885154703    0.0600
     28 H28        -7.8822    1.9947   49.9487 H       1  ZINC000885154703    0.0600
     29 H29        -9.1471    1.9000   51.1974 H       1  ZINC000885154703    0.0700
     30 H30        -7.4095    1.9885   52.9642 H       1  ZINC000885154703    0.1000
     31 H31        -7.1364    0.6130   51.8679 H       1  ZINC000885154703    0.0900
     32 H32        -2.7578    4.4037   49.6040 H       1  ZINC000885154703    0.0800
     33 H33        -1.1844    3.9507   50.3314 H       1  ZINC000885154703    0.0900
     34 H34        -1.3233    4.3608   47.6702 H       1  ZINC000885154703    0.0800
     35 H35        -0.4016    2.9482   48.2827 H       1  ZINC000885154703    0.0800
     36 H36        -1.4091    0.8372   46.6564 H       1  ZINC000885154703    0.4000
     37 H37        -1.5828   -1.3599   42.3128 H       1  ZINC000885154703    0.1500
     38 H38         0.4832   -0.5321   41.2695 H       1  ZINC000885154703    0.1500
     39 H39         0.2599    4.0444   43.4372 H       1  ZINC000885154703    0.0900
     40 H40         0.4411    3.3518   45.0669 H       1  ZINC000885154703    0.0800
     41 H41         1.7400    3.1536   43.8661 H       1  ZINC000885154703    0.0900
     42 H42        -2.2428    0.6068   48.6835 H       1  ZINC000885154703    0.0900
     43 H43        -3.8926    1.2909   48.6470 H       1  ZINC000885154703    0.0800
@<TRIPOS>BOND
     1     1     2    1
     2     1    27    1
     3     1    28    1
     4     1    29    1
     5     2     3    1
     6     2    30    1
     7     2    31    1
     8     3    26    1
     9     3     4    2
    10     4     5    1
    11     5     6    1
    12     6     7    1
    13     6    26    2
    14     7     8    1
    15     7    25    1
    16     7     9    1
    17     9    10    1
    18     9    32    1
    19     9    33    1
    20    10    11    1
    21    10    34    1
    22    10    35    1
    23    11    12    1
    24    11    13    1
    25    11    25    1
    26    13    14   am
    27    13    36    1
    28    14    15    2
    29    14    16    1
    30    16    23   ar
    31    16    17   ar
    32    17    18    1
    33    17    19   ar
    34    19    20   ar
    35    19    37    1
    36    20    21   ar
    37    20    38    1
    38    21    22    1
    39    21    23   ar
    40    23    24    1
    41    24    39    1
    42    24    40    1
    43    24    41    1
    44    25    42    1
    45    25    43    1
@<TRIPOS>SUBSTRUCTURE
     1 ZINC000885154703        1 TEMP              0 ****  ****    0 ROOT


##########                                Name:    ZINC000422507946
##########                DOCK_Rotatable_Bonds:                   7
##########                         Heavy_Atoms:                  25
##########                    Molecular_Weight:             364.484
##########                DOCK_Rotatable_Bonds:                   7
##########                       Formal_Charge:          0.00999952
##########                     HBond_Acceptors:                   6
##########                        HBond_Donors:                   1
##########                         Heavy_Atoms:                  25
##########                          Grid_Score:          -31.504616
##########                     Grid_vdw_energy:          -31.521738
##########                      Grid_es_energy:            0.017123
##########           Internal_energy_repulsive:           30.232229

@<TRIPOS>MOLECULE
ZINC000422507946
 50 52 1 0 0
SMALL
USER_CHARGES


@<TRIPOS>ATOM
      1 C1        -13.7419   -0.2093   61.7007 C.3     1  ZINC000422507946   -0.1400
      2 C2        -14.6027   -1.4269   61.3584 C.3     1  ZINC000422507946   -0.0400
      3 H3        -14.5069   -2.1887   62.1321 H       1  ZINC000422507946    0.1100
      4 C4        -14.1990   -2.0019   59.9847 C.3     1  ZINC000422507946   -0.1400
      5 C5        -15.4498   -2.5762   59.2971 C.3     1  ZINC000422507946    0.1400
      6 H6        -15.7564   -3.4978   59.7915 H       1  ZINC000422507946    0.1100
      7 N7        -15.1684   -2.8368   57.8832 N.am    1  ZINC000422507946   -0.6900
      8 C8        -14.7078   -4.0437   57.4990 C.2     1  ZINC000422507946    0.5100
      9 O9        -14.5276   -4.9150   58.3241 O.2     1  ZINC000422507946   -0.5000
     10 C10       -14.4191   -4.3089   56.0569 C.2     1  ZINC000422507946    0.5100
     11 O11       -15.0701   -5.1332   55.4494 O.2     1  ZINC000422507946   -0.5200
     12 N12       -13.4355   -3.6325   55.4312 N.am    1  ZINC000422507946   -0.5700
     13 C13       -12.6495   -2.6373   56.1648 C.3     1  ZINC000422507946    0.1400
     14 C14       -11.7514   -3.3356   57.1531 C.ar    1  ZINC000422507946   -0.0800
     15 C15       -11.6070   -4.7094   57.1046 C.ar    1  ZINC000422507946   -0.1100
     16 C16       -10.7833   -5.3515   58.0106 C.ar    1  ZINC000422507946   -0.0900
     17 C17       -10.1034   -4.6203   58.9658 C.ar    1  ZINC000422507946   -0.1500
     18 C18       -10.2469   -3.2438   59.0151 C.ar    1  ZINC000422507946    0.1000
     19 F19        -9.5827   -2.5279   59.9485 F       1  ZINC000422507946   -0.1400
     20 C20       -11.0678   -2.6015   58.1040 C.ar    1  ZINC000422507946   -0.1500
     21 C21       -13.1523   -3.8923   54.0175 C.3     1  ZINC000422507946    0.1400
     22 C22       -13.7929   -2.7970   53.1402 C.3     1  ZINC000422507946   -0.1200
     23 C23       -12.6475   -1.7815   52.9036 C.3     1  ZINC000422507946   -0.1300
     24 C24       -11.4082   -2.6962   52.7403 C.3     1  ZINC000422507946   -0.1200
     25 C25       -11.6360   -3.8282   53.7632 C.3     1  ZINC000422507946   -0.1600
     26 C26       -16.5670   -1.5077   59.4278 C.3     1  ZINC000422507946   -0.0900
     27 S27       -16.3551   -0.9346   61.1609 S.3     1  ZINC000422507946   -0.2700
     28 H28       -14.0586    0.2016   62.6594 H       1  ZINC000422507946    0.0700
     29 H29       -12.6958   -0.5094   61.7618 H       1  ZINC000422507946    0.0700
     30 H30       -13.8581    0.5475   60.9249 H       1  ZINC000422507946    0.0700
     31 H31       -13.7733   -1.2105   59.3678 H       1  ZINC000422507946    0.0900
     32 H32       -13.4613   -2.7924   60.1215 H       1  ZINC000422507946    0.0900
     33 H33       -15.3136   -2.1406   57.2235 H       1  ZINC000422507946    0.4100
     34 H34       -12.0423   -2.0649   55.4634 H       1  ZINC000422507946    0.1100
     35 H35       -13.3215   -1.9641   56.6971 H       1  ZINC000422507946    0.1000
     36 H36       -12.1383   -5.2817   56.3586 H       1  ZINC000422507946    0.1400
     37 H37       -10.6715   -6.4249   57.9719 H       1  ZINC000422507946    0.1300
     38 H38        -9.4606   -5.1221   59.6738 H       1  ZINC000422507946    0.1400
     39 H39       -11.1803   -1.5280   58.1413 H       1  ZINC000422507946    0.1400
     40 H40       -13.5374   -4.8717   53.7338 H       1  ZINC000422507946    0.1100
     41 H41       -14.1324   -3.2167   52.1933 H       1  ZINC000422507946    0.0800
     42 H42       -14.6209   -2.3222   53.6667 H       1  ZINC000422507946    0.0600
     43 H43       -12.8241   -1.2046   51.9959 H       1  ZINC000422507946    0.0700
     44 H44       -12.5309   -1.1232   53.7645 H       1  ZINC000422507946    0.0600
     45 H45       -11.3625   -3.0996   51.7288 H       1  ZINC000422507946    0.0700
     46 H46       -10.4958   -2.1479   52.9749 H       1  ZINC000422507946    0.0700
     47 H47       -11.1109   -3.6038   54.6916 H       1  ZINC000422507946    0.0900
     48 H48       -11.2855   -4.7762   53.3553 H       1  ZINC000422507946    0.0800
     49 H49       -16.4061   -0.6901   58.7252 H       1  ZINC000422507946    0.1000
     50 H50       -17.5507   -1.9553   59.2854 H       1  ZINC000422507946    0.1100
@<TRIPOS>BOND
     1     1     2    1
     2     1    28    1
     3     1    29    1
     4     1    30    1
     5     2     3    1
     6     2    27    1
     7     2     4    1
     8     4     5    1
     9     4    31    1
    10     4    32    1
    11     5     6    1
    12     5     7    1
    13     5    26    1
    14     7     8   am
    15     7    33    1
    16     8     9    2
    17     8    10    1
    18    10    11    2
    19    10    12   am
    20    12    13    1
    21    12    21    1
    22    13    14    1
    23    13    34    1
    24    13    35    1
    25    14    20   ar
    26    14    15   ar
    27    15    16   ar
    28    15    36    1
    29    16    17   ar
    30    16    37    1
    31    17    18   ar
    32    17    38    1
    33    18    19    1
    34    18    20   ar
    35    20    39    1
    36    21    25    1
    37    21    22    1
    38    21    40    1
    39    22    23    1
    40    22    41    1
    41    22    42    1
    42    23    24    1
    43    23    43    1
    44    23    44    1
    45    24    25    1
    46    24    45    1
    47    24    46    1
    48    25    47    1
    49    25    48    1
    50    26    27    1
    51    26    49    1
    52    26    50    1
@<TRIPOS>SUBSTRUCTURE
     1 ZINC000422507946        1 TEMP              0 ****  ****    0 ROOT


##########                                Name:    ZINC000012087388
##########                DOCK_Rotatable_Bonds:                   5
##########                         Heavy_Atoms:                  29
##########                    Molecular_Weight:              418.52
##########                DOCK_Rotatable_Bonds:                   5
##########                       Formal_Charge:          -0.0499999
##########                     HBond_Acceptors:                  10
##########                        HBond_Donors:                   1
##########                         Heavy_Atoms:                  29
##########                          Grid_Score:          -31.495121
##########                     Grid_vdw_energy:          -30.429327
##########                      Grid_es_energy:           -1.065794
##########           Internal_energy_repulsive:           31.101736

@<TRIPOS>MOLECULE
ZINC000012087388
 55 58 1 0 0
SMALL
USER_CHARGES


@<TRIPOS>ATOM
      1 C1        -12.7120   -1.5627   51.5187 C.3     1  <0>        -0.6600
      2 S2        -11.3387   -2.5403   52.1888 S.o2    1  <0>         2.5100
      3 O3        -11.6657   -3.9230   52.1914 O.2     1  <0>        -0.9400
      4 O4        -10.0991   -2.0815   51.6672 O.2     1  <0>        -0.9300
      5 C5        -11.2803   -2.1043   53.8950 C.ar    1  <0>        -0.8400
      6 C6        -11.7303   -2.9843   54.8664 C.ar    1  <0>         0.3000
      7 N7        -11.6721   -2.6262   56.1385 N.ar    1  <0>        -0.5800
      8 C8        -11.1907   -1.4423   56.4874 C.ar    1  <0>         0.6000
      9 N9        -11.1444   -1.1001   57.8276 N.pl3   1  <0>        -0.5700
     10 C10       -11.8393    0.0976   58.3190 C.3     1  <0>         0.1200
     11 C11       -12.7569   -0.3052   59.4776 C.3     1  <0>        -0.1400
     12 C12       -11.9364   -1.0368   60.5423 C.3     1  <0>        -0.1200
     13 C13       -11.3331   -2.3076   59.9396 C.3     1  <0>        -0.1400
     14 C14       -10.4043   -1.9309   58.7872 C.3     1  <0>         0.1200
     15 N15       -10.7521   -0.5781   55.5837 N.ar    1  <0>        -0.5700
     16 C16       -10.7779   -0.8759   54.2952 C.ar    1  <0>         0.3200
     17 C17       -10.2771    0.1126   53.2740 C.3     1  <0>        -0.0700
     18 C18       -10.7050    1.5251   53.6790 C.3     1  <0>        -0.1300
     19 C19       -10.2240    2.5231   52.6209 C.3     1  <0>         0.0900
     20 N20        -8.7751    2.3600   52.4409 N.am    1  <0>        -0.6100
     21 C21        -7.9460    3.4168   52.5518 C.2     1  <0>         0.5900
     22 O22        -8.3955    4.5187   52.8029 O.2     1  <0>        -0.5100
     23 C23        -6.4968    3.2374   52.3687 C.2     1  <0>        -0.0400
     24 C24        -5.5103    3.4197   53.3222 C.2     1  <0>        -0.1500
     25 C25        -4.3088    3.1303   52.6714 C.2     1  <0>         0.0000
     26 N26        -4.5900    2.8061   51.4352 N.2     1  <0>        -0.2700
     27 N27        -5.8563    2.8521   51.2254 N.pl3   1  <0>        -0.3900
     28 C28        -8.2469    1.0227   52.1381 C.3     1  <0>         0.1100
     29 C29        -8.7500    0.0416   53.2016 C.3     1  <0>        -0.1200
     30 H30       -13.6333   -1.8268   52.0379 H       1  <0>         0.1400
     31 H31       -12.5061   -0.5018   51.6607 H       1  <0>         0.1300
     32 H32       -12.8218   -1.7721   50.4545 H       1  <0>         0.1400
     33 H33       -12.1241   -3.9507   54.5881 H       1  <0>         0.1900
     34 H34       -11.1083    0.8268   58.6682 H       1  <0>         0.0700
     35 H35       -12.4345    0.5303   57.5148 H       1  <0>         0.1000
     36 H36       -13.2055    0.5874   59.9137 H       1  <0>         0.0800
     37 H37       -13.5426   -0.9640   59.1074 H       1  <0>         0.0700
     38 H38       -11.1357   -0.3863   60.8943 H       1  <0>         0.0700
     39 H39       -12.5821   -1.3029   61.3792 H       1  <0>         0.0700
     40 H40       -10.7681   -2.8403   60.7046 H       1  <0>         0.0800
     41 H41       -12.1321   -2.9475   59.5651 H       1  <0>         0.0700
     42 H42       -10.0503   -2.8354   58.2927 H       1  <0>         0.1000
     43 H43        -9.5552   -1.3661   59.1720 H       1  <0>         0.0700
     44 H44       -10.6985   -0.1284   52.2981 H       1  <0>         0.1000
     45 H45       -11.7916    1.5689   53.7530 H       1  <0>         0.0800
     46 H46       -10.2636    1.7765   54.6434 H       1  <0>         0.0900
     47 H47       -10.7337    2.3290   51.6772 H       1  <0>         0.0800
     48 H48       -10.4390    3.5390   52.9524 H       1  <0>         0.0900
     49 H49        -5.6416    3.7216   54.3508 H       1  <0>         0.1700
     50 H50        -3.3228    3.1678   53.1105 H       1  <0>         0.1900
     51 H51        -6.2910    2.6508   50.3820 H       1  <0>         0.4400
     52 H52        -8.5953    0.7062   51.1550 H       1  <0>         0.0800
     53 H53        -7.1573    1.0486   52.1511 H       1  <0>         0.1000
     54 H54        -8.3271    0.3068   54.1705 H       1  <0>         0.0800
     55 H55        -8.4451   -0.9707   52.9359 H       1  <0>         0.0900
@<TRIPOS>BOND
     1     1     2    1
     2     1    30    1
     3     1    31    1
     4     1    32    1
     5     2     3    2
     6     2     4    2
     7     2     5    1
     8     5    16   ar
     9     5     6   ar
    10     6     7   ar
    11     6    33    1
    12     7     8   ar
    13     8     9    1
    14     8    15   ar
    15     9    14    1
    16     9    10    1
    17    10    11    1
    18    10    34    1
    19    10    35    1
    20    11    12    1
    21    11    36    1
    22    11    37    1
    23    12    13    1
    24    12    38    1
    25    12    39    1
    26    13    14    1
    27    13    40    1
    28    13    41    1
    29    14    42    1
    30    14    43    1
    31    15    16   ar
    32    16    17    1
    33    17    29    1
    34    17    18    1
    35    17    44    1
    36    18    19    1
    37    18    45    1
    38    18    46    1
    39    19    20    1
    40    19    47    1
    41    19    48    1
    42    20    21   am
    43    20    28    1
    44    21    22    2
    45    21    23    1
    46    23    27    1
    47    23    24    2
    48    24    25    1
    49    24    49    1
    50    25    26    2
    51    25    50    1
    52    26    27    1
    53    27    51    1
    54    28    29    1
    55    28    52    1
    56    28    53    1
    57    29    54    1
    58    29    55    1
@<TRIPOS>SUBSTRUCTURE
     1 <0>         1 TEMP              0 ****  ****    0 ROOT


##########                                Name:    ZINC000521663393
##########                DOCK_Rotatable_Bonds:                   5
##########                         Heavy_Atoms:                  27
##########                    Molecular_Weight:              386.49
##########                DOCK_Rotatable_Bonds:                   5
##########                       Formal_Charge:               -0.02
##########                     HBond_Acceptors:                   6
##########                        HBond_Donors:                   1
##########                         Heavy_Atoms:                  27
##########                          Grid_Score:          -31.473930
##########                     Grid_vdw_energy:          -31.325895
##########                      Grid_es_energy:           -0.148036
##########           Internal_energy_repulsive:           37.743626

@<TRIPOS>MOLECULE
ZINC000521663393
 50 53 1 0 0
SMALL
USER_CHARGES


@<TRIPOS>ATOM
      1 C1        -14.5400   -5.0494   55.5383 C.3     1  ZINC000521663393   -0.1500
      2 C2        -13.0879   -4.5976   55.7074 C.3     1  ZINC000521663393    0.0800
      3 H3        -12.5185   -4.7842   54.7970 H       1  ZINC000521663393    0.0900
      4 O4        -12.4785   -5.2528   56.8327 O.3     1  ZINC000521663393   -0.2900
      5 C5        -11.5929   -4.4027   57.4211 C.ar    1  ZINC000521663393    0.1400
      6 C6        -10.5356   -4.6734   58.2852 C.ar    1  ZINC000521663393   -0.1800
      7 C7         -9.7590   -3.6422   58.7785 C.ar    1  ZINC000521663393    0.1400
      8 F8         -8.7352   -3.9133   59.6172 F       1  ZINC000521663393   -0.1300
      9 C9        -10.0254   -2.3324   58.4167 C.ar    1  ZINC000521663393   -0.1800
     10 C10       -11.0720   -2.0577   57.5545 C.ar    1  ZINC000521663393   -0.0200
     11 C11       -11.8445   -3.0848   57.0598 C.ar    1  ZINC000521663393   -0.2000
     12 C12       -13.0213   -3.1023   56.0988 C.3     1  ZINC000521663393    0.1700
     13 H13       -13.9375   -2.7890   56.5991 H       1  ZINC000521663393    0.1200
     14 N14       -12.7537   -2.2630   54.9282 N.am    1  ZINC000521663393   -0.7200
     15 C15       -13.7026   -1.4220   54.4709 C.2     1  ZINC000521663393    0.5300
     16 O16       -14.7773   -1.3590   55.0294 O.2     1  ZINC000521663393   -0.5000
     17 C17       -13.4279   -0.5599   53.2658 C.3     1  ZINC000521663393    0.1200
     18 H18       -13.6731    0.4766   53.4970 H       1  ZINC000521663393    0.0700
     19 C19       -11.9701   -0.6612   52.8975 C.ar    1  ZINC000521663393   -0.0900
     20 C20       -11.4168   -1.8920   52.5975 C.ar    1  ZINC000521663393   -0.0900
     21 C21       -10.0797   -1.9848   52.2597 C.ar    1  ZINC000521663393   -0.1200
     22 C22        -9.2957   -0.8469   52.2215 C.ar    1  ZINC000521663393   -0.1100
     23 C23        -9.8492    0.3840   52.5205 C.ar    1  ZINC000521663393   -0.1200
     24 C24       -11.1874    0.4774   52.8542 C.ar    1  ZINC000521663393   -0.1100
     25 N25       -14.2507   -1.0179   52.1383 N.3     1  ZINC000521663393   -0.5300
     26 C26       -14.5237   -2.4535   52.2367 C.3     1  ZINC000521663393    0.0500
     27 C27       -15.7103   -2.8206   51.3389 C.3     1  ZINC000521663393   -0.0700
     28 S28       -15.2673   -2.4462   49.6149 S.3     1  ZINC000521663393   -0.2700
     29 C29       -14.6858   -0.7273   49.7414 C.3     1  ZINC000521663393   -0.0700
     30 C30       -13.6403   -0.6485   50.8591 C.3     1  ZINC000521663393    0.0600
     31 H31       -15.0021   -4.4900   54.7248 H       1  ZINC000521663393    0.0800
     32 H32       -14.5645   -6.1142   55.3070 H       1  ZINC000521663393    0.0800
     33 H33       -15.0877   -4.8656   56.4626 H       1  ZINC000521663393    0.0700
     34 H34       -10.3218   -5.6926   58.5715 H       1  ZINC000521663393    0.1400
     35 H35        -9.4188   -1.5283   58.8064 H       1  ZINC000521663393    0.1400
     36 H36       -11.2831   -1.0377   57.2694 H       1  ZINC000521663393    0.1300
     37 H37       -11.8938   -2.3125   54.4822 H       1  ZINC000521663393    0.4000
     38 H38       -12.0292   -2.7810   52.6274 H       1  ZINC000521663393    0.1300
     39 H39        -9.6472   -2.9465   52.0261 H       1  ZINC000521663393    0.1300
     40 H40        -8.2509   -0.9195   51.9581 H       1  ZINC000521663393    0.1200
     41 H41        -9.2368    1.2731   52.4909 H       1  ZINC000521663393    0.1300
     42 H42       -11.6199    1.4392   53.0878 H       1  ZINC000521663393    0.1200
     43 H43       -13.6432   -3.0123   51.9196 H       1  ZINC000521663393    0.0500
     44 H44       -14.7594   -2.7074   53.2702 H       1  ZINC000521663393    0.1000
     45 H45       -15.9294   -3.8836   51.4381 H       1  ZINC000521663393    0.1100
     46 H46       -16.5831   -2.2352   51.6282 H       1  ZINC000521663393    0.0900
     47 H47       -14.2356   -0.4225   48.7966 H       1  ZINC000521663393    0.1100
     48 H48       -15.5251   -0.0733   49.9781 H       1  ZINC000521663393    0.1000
     49 H49       -13.2540    0.3688   50.9225 H       1  ZINC000521663393    0.0800
     50 H50       -12.8212   -1.3325   50.6377 H       1  ZINC000521663393    0.0500
@<TRIPOS>BOND
     1     1     2    1
     2     1    31    1
     3     1    32    1
     4     1    33    1
     5     2     3    1
     6     2    12    1
     7     2     4    1
     8     4     5    1
     9     5    11   ar
    10     5     6   ar
    11     6     7   ar
    12     6    34    1
    13     7     8    1
    14     7     9   ar
    15     9    10   ar
    16     9    35    1
    17    10    11   ar
    18    10    36    1
    19    11    12    1
    20    12    13    1
    21    12    14    1
    22    14    15   am
    23    14    37    1
    24    15    16    2
    25    15    17    1
    26    17    18    1
    27    17    19    1
    28    17    25    1
    29    19    24   ar
    30    19    20   ar
    31    20    21   ar
    32    20    38    1
    33    21    22   ar
    34    21    39    1
    35    22    23   ar
    36    22    40    1
    37    23    24   ar
    38    23    41    1
    39    24    42    1
    40    25    30    1
    41    25    26    1
    42    26    27    1
    43    26    43    1
    44    26    44    1
    45    27    28    1
    46    27    45    1
    47    27    46    1
    48    28    29    1
    49    29    30    1
    50    29    47    1
    51    29    48    1
    52    30    49    1
    53    30    50    1
@<TRIPOS>SUBSTRUCTURE
     1 ZINC000521663393        1 TEMP              0 ****  ****    0 ROOT


##########                                Name:    ZINC001064463188
##########                DOCK_Rotatable_Bonds:                   6
##########                         Heavy_Atoms:                  25
##########                    Molecular_Weight:             342.441
##########                DOCK_Rotatable_Bonds:                   6
##########                       Formal_Charge:          -0.0100004
##########                     HBond_Acceptors:                   6
##########                        HBond_Donors:                   0
##########                         Heavy_Atoms:                  25
##########                          Grid_Score:          -31.447641
##########                     Grid_vdw_energy:          -30.691799
##########                      Grid_es_energy:           -0.755843
##########           Internal_energy_repulsive:           11.503282

@<TRIPOS>MOLECULE
ZINC001064463188
 51 54 1 0 0
SMALL
USER_CHARGES


@<TRIPOS>ATOM
      1 C1        -10.9342    0.6190   61.4522 C.3     1  ZINC001064463188    0.0400
      2 O2        -10.0627   -0.4943   61.6601 O.3     1  ZINC001064463188   -0.3000
      3 C3        -10.2983   -1.6062   60.9222 C.ar    1  ZINC001064463188    0.3900
      4 C4         -9.4167   -2.6850   60.9684 C.ar    1  ZINC001064463188   -0.2800
      5 C5         -9.6964   -3.7990   60.1991 C.ar    1  ZINC001064463188    0.2000
      6 N6        -10.7857   -3.8089   59.4460 N.ar    1  ZINC001064463188   -0.5800
      7 C7        -11.6056   -2.7685   59.4223 C.ar    1  ZINC001064463188    0.5300
      8 N8        -12.7345   -2.8168   58.6230 N.3     1  ZINC001064463188   -0.4500
      9 C9        -13.9504   -2.8039   59.4330 C.3     1  ZINC001064463188    0.0700
     10 C10       -14.9520   -3.8348   58.8989 C.3     1  ZINC001064463188   -0.1200
     11 C11       -15.4806   -3.4573   57.5282 C.3     1  ZINC001064463188    0.1400
     12 H12       -16.1425   -4.2398   57.1570 H       1  ZINC001064463188    0.0900
     13 C13       -16.2212   -2.1188   57.5583 C.3     1  ZINC001064463188   -0.1300
     14 C14       -15.1260   -1.0736   57.2824 C.3     1  ZINC001064463188   -0.1300
     15 C15       -13.9495   -1.8670   56.7034 C.3     1  ZINC001064463188    0.1200
     16 H16       -13.7084   -1.4932   55.7083 H       1  ZINC001064463188    0.0900
     17 C17       -12.7188   -1.7263   57.6126 C.3     1  ZINC001064463188    0.0600
     18 N18       -14.3082   -3.3080   56.6168 N.am    1  ZINC001064463188   -0.6000
     19 C19       -13.7022   -4.2588   55.8784 C.2     1  ZINC001064463188    0.5800
     20 O20       -14.1089   -5.4045   55.9103 O.2     1  ZINC001064463188   -0.5400
     21 C21       -12.5491   -3.9108   55.0340 C.2     1  ZINC001064463188   -0.2200
     22 C22       -12.7400   -3.5058   53.7817 C.2     1  ZINC001064463188    0.0000
     23 C23       -14.1378   -3.4033   53.2278 C.3     1  ZINC001064463188   -0.1300
     24 C24       -11.5587   -3.1493   52.9166 C.3     1  ZINC001064463188   -0.1200
     25 C25       -11.7856   -2.1342   51.7945 C.3     1  ZINC001064463188   -0.1900
     26 C26       -10.9940   -1.7328   53.0408 C.3     1  ZINC001064463188   -0.1600
     27 N27       -11.3749   -1.6855   60.1494 N.ar    1  ZINC001064463188   -0.5900
     28 H28       -11.9588    0.3264   61.6824 H       1  ZINC001064463188    0.0600
     29 H29       -10.6360    1.4405   62.1037 H       1  ZINC001064463188    0.1000
     30 H30       -10.8728    0.9393   60.4122 H       1  ZINC001064463188    0.0600
     31 H31        -8.5348   -2.6511   61.5909 H       1  ZINC001064463188    0.1500
     32 H32        -9.0336   -4.6516   60.2117 H       1  ZINC001064463188    0.1800
     33 H33       -13.6991   -3.0457   60.4657 H       1  ZINC001064463188    0.0800
     34 H34       -14.3990   -1.8112   59.3955 H       1  ZINC001064463188    0.0600
     35 H35       -14.4607   -4.8056   58.8343 H       1  ZINC001064463188    0.0800
     36 H36       -15.7889   -3.9085   59.5934 H       1  ZINC001064463188    0.0800
     37 H37       -16.9833   -2.0872   56.7797 H       1  ZINC001064463188    0.0800
     38 H38       -16.6687   -1.9526   58.5382 H       1  ZINC001064463188    0.0900
     39 H39       -15.4787   -0.3383   56.5590 H       1  ZINC001064463188    0.0800
     40 H40       -14.8307   -0.5817   58.2092 H       1  ZINC001064463188    0.0800
     41 H41       -12.7554   -0.7683   58.1312 H       1  ZINC001064463188    0.0700
     42 H42       -11.8118   -1.7835   57.0108 H       1  ZINC001064463188    0.0900
     43 H43       -11.5473   -3.9843   55.4310 H       1  ZINC001064463188    0.1200
     44 H44       -14.5316   -2.4049   53.4179 H       1  ZINC001064463188    0.0800
     45 H45       -14.1173   -3.5875   52.1537 H       1  ZINC001064463188    0.0800
     46 H46       -14.7754   -4.1435   53.7113 H       1  ZINC001064463188    0.0700
     47 H47       -10.8524   -3.9581   52.7289 H       1  ZINC001064463188    0.1400
     48 H48       -11.2285   -2.2752   50.8683 H       1  ZINC001064463188    0.1000
     49 H49       -12.7892   -1.7243   51.6821 H       1  ZINC001064463188    0.1000
     50 H50       -11.4769   -1.0587   53.7482 H       1  ZINC001064463188    0.0900
     51 H51        -9.9162   -1.6095   52.9344 H       1  ZINC001064463188    0.1000
@<TRIPOS>BOND
     1     1     2    1
     2     1    28    1
     3     1    29    1
     4     1    30    1
     5     2     3    1
     6     3    27   ar
     7     3     4   ar
     8     4     5   ar
     9     4    31    1
    10     5     6   ar
    11     5    32    1
    12     6     7   ar
    13     7     8    1
    14     7    27   ar
    15     8    17    1
    16     8     9    1
    17     9    10    1
    18     9    33    1
    19     9    34    1
    20    10    11    1
    21    10    35    1
    22    10    36    1
    23    11    12    1
    24    11    18    1
    25    11    13    1
    26    13    14    1
    27    13    37    1
    28    13    38    1
    29    14    15    1
    30    14    39    1
    31    14    40    1
    32    15    16    1
    33    15    17    1
    34    15    18    1
    35    17    41    1
    36    17    42    1
    37    18    19   am
    38    19    20    2
    39    19    21    1
    40    21    22    2
    41    21    43    1
    42    22    23    1
    43    22    24    1
    44    23    44    1
    45    23    45    1
    46    23    46    1
    47    24    26    1
    48    24    25    1
    49    24    47    1
    50    25    26    1
    51    25    48    1
    52    25    49    1
    53    26    50    1
    54    26    51    1
@<TRIPOS>SUBSTRUCTURE
     1 ZINC001064463188        1 TEMP              0 ****  ****    0 ROOT


##########                                Name:    ZINC000274225049
##########                DOCK_Rotatable_Bonds:                   6
##########                         Heavy_Atoms:                  25
##########                    Molecular_Weight:             380.895
##########                DOCK_Rotatable_Bonds:                   6
##########                       Formal_Charge:           0.0200006
##########                     HBond_Acceptors:                   7
##########                        HBond_Donors:                   2
##########                         Heavy_Atoms:                  25
##########                          Grid_Score:          -31.446991
##########                     Grid_vdw_energy:          -29.517443
##########                      Grid_es_energy:           -1.929547
##########           Internal_energy_repulsive:           10.982908

@<TRIPOS>MOLECULE
ZINC000274225049
 46 48 1 0 0
SMALL
USER_CHARGES


@<TRIPOS>ATOM
      1 C1         -9.6226   -3.2666   59.8937 C.3     1  ZINC000274225049   -0.1600
      2 C2        -10.2600   -2.3723   58.8285 C.3     1  ZINC000274225049    0.2000
      3 H3        -10.0431   -2.7747   57.8390 H       1  ZINC000274225049    0.1100
      4 N4         -9.7115   -1.0181   58.9357 N.am    1  ZINC000274225049   -0.7400
      5 C5         -9.7352   -0.1949   57.8688 C.2     1  ZINC000274225049    0.7100
      6 O6        -10.2130   -0.5758   56.8177 O.2     1  ZINC000274225049   -0.5800
      7 N7         -9.2291    1.0503   57.9671 N.am    1  ZINC000274225049   -0.7500
      8 C8         -9.2564    1.9457   56.8079 C.3     1  ZINC000274225049    0.1500
      9 C9         -8.1545    2.9977   56.9500 C.3     1  ZINC000274225049   -0.1000
     10 H10        -8.3149    3.5861   57.8534 H       1  ZINC000274225049    0.1000
     11 C11        -8.1424    3.9179   55.7167 C.3     1  ZINC000274225049   -0.1100
     12 C12        -6.8338    4.7330   55.7210 C.3     1  ZINC000274225049   -0.5900
     13 S13        -5.6230    3.6848   56.6048 S.o2    1  ZINC000274225049    2.3900
     14 O14        -4.6378    3.2281   55.6883 O.2     1  ZINC000274225049   -0.9300
     15 O15        -5.2262    4.3337   57.8052 O.2     1  ZINC000274225049   -0.9300
     16 C16        -6.7665    2.3088   57.0044 C.3     1  ZINC000274225049   -0.5900
     17 C17       -11.7518   -2.3281   59.0368 C.ar    1  ZINC000274225049   -0.0700
     18 C18       -12.5715   -3.3273   58.4857 C.ar    1  ZINC000274225049   -0.0300
     19 C19       -12.0291   -4.3836   57.7337 C.ar    1  ZINC000274225049   -0.1100
     20 C20       -12.8538   -5.3340   57.2156 C.ar    1  ZINC000274225049   -0.1100
     21 C21       -14.2316   -5.2769   57.4188 C.ar    1  ZINC000274225049   -0.1100
     22 C22       -14.7921   -4.2691   58.1415 C.ar    1  ZINC000274225049   -0.1000
     23 C23       -13.9725   -3.2694   58.6925 C.ar    1  ZINC000274225049   -0.0400
     24 C24       -14.5149   -2.2129   59.4452 C.ar    1  ZINC000274225049   -0.0300
     25 Cl25      -16.2278   -2.1210   59.7126 Cl      1  ZINC000274225049   -0.0600
     26 C26       -13.6886   -1.2619   59.9641 C.ar    1  ZINC000274225049   -0.1000
     27 C27       -12.3112   -1.3226   59.7646 C.ar    1  ZINC000274225049   -0.1000
     28 H28        -8.5436   -3.2987   59.7430 H       1  ZINC000274225049    0.0700
     29 H29        -9.8395   -2.8641   60.8832 H       1  ZINC000274225049    0.0700
     30 H30       -10.0307   -4.2742   59.8139 H       1  ZINC000274225049    0.0800
     31 H31        -9.3312   -0.7139   59.7747 H       1  ZINC000274225049    0.4000
     32 H32        -8.8467    1.3537   58.8054 H       1  ZINC000274225049    0.4000
     33 H33        -9.0920    1.3678   55.8985 H       1  ZINC000274225049    0.0800
     34 H34       -10.2262    2.4403   56.7537 H       1  ZINC000274225049    0.0800
     35 H35        -8.1962    3.3158   54.8097 H       1  ZINC000274225049    0.0900
     36 H36        -8.9959    4.5948   55.7562 H       1  ZINC000274225049    0.0900
     37 H37        -6.4999    4.9182   54.7001 H       1  ZINC000274225049    0.1400
     38 H38        -6.9764    5.6750   56.2503 H       1  ZINC000274225049    0.1400
     39 H39        -6.5668    1.9169   58.0017 H       1  ZINC000274225049    0.1400
     40 H40        -6.6979    1.5190   56.2563 H       1  ZINC000274225049    0.1400
     41 H41       -10.9634   -4.4405   57.5678 H       1  ZINC000274225049    0.1300
     42 H42       -12.4346   -6.1444   56.6377 H       1  ZINC000274225049    0.1300
     43 H43       -14.8638   -6.0438   56.9963 H       1  ZINC000274225049    0.1300
     44 H44       -15.8613   -4.2376   58.2905 H       1  ZINC000274225049    0.1300
     45 H45       -14.1073   -0.4511   60.5417 H       1  ZINC000274225049    0.1300
     46 H46       -11.6785   -0.5560   60.1867 H       1  ZINC000274225049    0.1300
@<TRIPOS>BOND
     1     1     2    1
     2     1    28    1
     3     1    29    1
     4     1    30    1
     5     2     3    1
     6     2     4    1
     7     2    17    1
     8     4     5   am
     9     4    31    1
    10     5     6    2
    11     5     7   am
    12     7     8    1
    13     7    32    1
    14     8     9    1
    15     8    33    1
    16     8    34    1
    17     9    10    1
    18     9    16    1
    19     9    11    1
    20    11    12    1
    21    11    35    1
    22    11    36    1
    23    12    13    1
    24    12    37    1
    25    12    38    1
    26    13    14    2
    27    13    15    2
    28    13    16    1
    29    16    39    1
    30    16    40    1
    31    17    27   ar
    32    17    18   ar
    33    18    23   ar
    34    18    19   ar
    35    19    20   ar
    36    19    41    1
    37    20    21   ar
    38    20    42    1
    39    21    22   ar
    40    21    43    1
    41    22    23   ar
    42    22    44    1
    43    23    24   ar
    44    24    25    1
    45    24    26   ar
    46    26    27   ar
    47    26    45    1
    48    27    46    1
@<TRIPOS>SUBSTRUCTURE
     1 ZINC000274225049        1 TEMP              0 ****  ****    0 ROOT


##########                                Name:    ZINC000842947763
##########                DOCK_Rotatable_Bonds:                   7
##########                         Heavy_Atoms:                  24
##########                    Molecular_Weight:             365.373
##########                DOCK_Rotatable_Bonds:                   7
##########                       Formal_Charge:          0.00999997
##########                     HBond_Acceptors:                   9
##########                        HBond_Donors:                   0
##########                         Heavy_Atoms:                  24
##########                          Grid_Score:          -31.433552
##########                     Grid_vdw_energy:          -30.186756
##########                      Grid_es_energy:           -1.246796
##########           Internal_energy_repulsive:           32.399414

@<TRIPOS>MOLECULE
ZINC000842947763
 42 43 1 0 0
SMALL
USER_CHARGES


@<TRIPOS>ATOM
      1 C1         -9.5093    0.8218   64.9738 C.3     1  ZINC000842947763   -0.1600
      2 C2        -10.4940    0.6469   63.8160 C.3     1  ZINC000842947763   -0.1000
      3 H3        -11.3740    0.1071   64.1657 H       1  ZINC000842947763    0.1000
      4 C4         -9.8236   -0.1451   62.6915 C.3     1  ZINC000842947763    0.0800
      5 O5        -10.7999   -1.0195   62.0667 O.3     1  ZINC000842947763   -0.3500
      6 C6        -10.3605   -1.8148   61.0714 C.2     1  ZINC000842947763    0.5200
      7 O7         -9.1696   -2.0123   60.9324 O.2     1  ZINC000842947763   -0.5100
      8 C8        -11.3244   -2.4447   60.1515 C.ar    1  ZINC000842947763   -0.1600
      9 C9        -10.8809   -3.0420   58.9674 C.ar    1  ZINC000842947763   -0.0200
     10 C10       -11.7844   -3.6277   58.1144 C.ar    1  ZINC000842947763   -0.1700
     11 C11       -13.1502   -3.6305   58.4231 C.ar    1  ZINC000842947763    0.2000
     12 C12       -13.5811   -3.0342   59.6025 C.ar    1  ZINC000842947763   -0.1500
     13 C13       -12.6882   -2.4544   60.4590 C.ar    1  ZINC000842947763   -0.0100
     14 C14       -15.0846   -3.1776   59.6895 C.3     1  ZINC000842947763   -0.0800
     15 C15       -15.4726   -3.9342   58.4087 C.3     1  ZINC000842947763    0.1100
     16 N16       -14.2106   -4.1643   57.7009 N.am    1  ZINC000842947763   -0.9400
     17 S17       -14.0684   -4.9473   56.2488 S.o2    1  ZINC000842947763    2.6100
     18 C18       -15.0675   -3.9591   55.1018 C.3     1  ZINC000842947763   -0.6700
     19 O19       -12.6884   -4.8411   55.9269 O.2     1  ZINC000842947763   -0.9300
     20 O20       -14.6730   -6.2136   56.4728 O.2     1  ZINC000842947763   -0.9400
     21 C21       -10.9139    2.0214   63.2914 C.3     1  ZINC000842947763   -0.1600
     22 C22       -12.2835    1.9135   62.6179 C.3     1  ZINC000842947763    0.4600
     23 F23       -12.1491    1.2559   61.3905 F       1  ZINC000842947763   -0.1800
     24 F24       -13.1527    1.1902   63.4417 F       1  ZINC000842947763   -0.1800
     25 F25       -12.8011    3.1958   62.4057 F       1  ZINC000842947763   -0.1800
     26 H26       -10.0263    1.2606   65.8272 H       1  ZINC000842947763    0.0700
     27 H27        -9.1031   -0.1497   65.2552 H       1  ZINC000842947763    0.0700
     28 H28        -8.6970    1.4793   64.6638 H       1  ZINC000842947763    0.0600
     29 H29        -9.4258    0.5455   61.9479 H       1  ZINC000842947763    0.0800
     30 H30        -9.0108   -0.7435   63.1032 H       1  ZINC000842947763    0.0800
     31 H31        -9.8288   -3.0425   58.7235 H       1  ZINC000842947763    0.1500
     32 H32       -11.4394   -4.0885   57.2005 H       1  ZINC000842947763    0.1500
     33 H33       -13.0378   -1.9953   61.3719 H       1  ZINC000842947763    0.1400
     34 H34       -15.3614   -3.7552   60.5715 H       1  ZINC000842947763    0.1000
     35 H35       -15.5600   -2.1969   59.7111 H       1  ZINC000842947763    0.1000
     36 H36       -15.9443   -4.8845   58.6590 H       1  ZINC000842947763    0.1000
     37 H37       -16.1426   -3.3276   57.7993 H       1  ZINC000842947763    0.0900
     38 H38       -14.6721   -2.9442   55.0573 H       1  ZINC000842947763    0.1300
     39 H39       -15.0305   -4.4072   54.1088 H       1  ZINC000842947763    0.1400
     40 H40       -16.1000   -3.9318   55.4499 H       1  ZINC000842947763    0.1300
     41 H41       -10.9720    2.7250   64.1219 H       1  ZINC000842947763    0.1200
     42 H42       -10.1796    2.3738   62.5671 H       1  ZINC000842947763    0.1100
@<TRIPOS>BOND
     1     1     2    1
     2     1    26    1
     3     1    27    1
     4     1    28    1
     5     2     3    1
     6     2     4    1
     7     2    21    1
     8     4     5    1
     9     4    29    1
    10     4    30    1
    11     5     6    1
    12     6     7    2
    13     6     8    1
    14     8    13   ar
    15     8     9   ar
    16     9    10   ar
    17     9    31    1
    18    10    11   ar
    19    10    32    1
    20    11    16    1
    21    11    12   ar
    22    12    13   ar
    23    12    14    1
    24    13    33    1
    25    14    15    1
    26    14    34    1
    27    14    35    1
    28    15    16    1
    29    15    36    1
    30    15    37    1
    31    16    17   am
    32    17    18    1
    33    17    19    2
    34    17    20    2
    35    18    38    1
    36    18    39    1
    37    18    40    1
    38    21    22    1
    39    21    41    1
    40    21    42    1
    41    22    23    1
    42    22    24    1
    43    22    25    1
@<TRIPOS>SUBSTRUCTURE
     1 ZINC000842947763        1 TEMP              0 ****  ****    0 ROOT


##########                                Name:    ZINC000285228948
##########                DOCK_Rotatable_Bonds:                   8
##########                         Heavy_Atoms:                  23
##########                    Molecular_Weight:             339.822
##########                DOCK_Rotatable_Bonds:                   8
##########                       Formal_Charge:           0.0299997
##########                     HBond_Acceptors:                   7
##########                        HBond_Donors:                   3
##########                         Heavy_Atoms:                  23
##########                          Grid_Score:          -31.418034
##########                     Grid_vdw_energy:          -28.916763
##########                      Grid_es_energy:           -2.501269
##########           Internal_energy_repulsive:           22.349051

@<TRIPOS>MOLECULE
ZINC000285228948
 45 46 1 0 0
SMALL
USER_CHARGES


@<TRIPOS>ATOM
      1 C1         -9.2912   -3.1247   60.3652 C.3     1  <0>        -0.1600
      2 C2        -10.7070   -2.5466   60.3163 C.3     1  <0>         0.1800
      3 H3        -11.1692   -2.6339   61.2996 H       1  <0>         0.1100
      4 C4        -11.5261   -3.3088   59.3067 C.ar    1  <0>        -0.0900
      5 C5        -10.9507   -4.3386   58.5859 C.ar    1  <0>        -0.1000
      6 C6        -11.7014   -5.0379   57.6599 C.ar    1  <0>        -0.1100
      7 C7        -13.0289   -4.7071   57.4542 C.ar    1  <0>        -0.0300
      8 Cl8       -13.9727   -5.5853   56.2915 Cl      1  <0>        -0.0700
      9 C9        -13.6042   -3.6762   58.1758 C.ar    1  <0>        -0.1100
     10 C10       -12.8540   -2.9814   59.1057 C.ar    1  <0>        -0.0900
     11 N11       -10.6449   -1.1351   59.9293 N.am    1  <0>        -0.6100
     12 C12       -10.8156   -0.7521   58.5256 C.3     1  <0>         0.0600
     13 C13       -10.4307   -0.1887   60.8647 C.2     1  <0>         0.5200
     14 O14       -10.3777    0.9799   60.5441 O.2     1  <0>        -0.5200
     15 C15       -10.2568   -0.5823   62.3089 C.3     1  <0>         0.0300
     16 N16       -10.1170    0.6260   63.1325 N.3     1  <0>        -0.4900
     17 C17        -9.1578    0.4041   64.2446 C.3     1  <0>         0.0400
     18 C18        -9.5271    1.5159   65.2585 C.3     1  <0>        -0.1400
     19 C19       -11.0678    1.5842   65.1507 C.3     1  <0>         0.1100
     20 O20       -11.6725    0.8112   66.1894 O.3     1  <0>        -0.5400
     21 C21       -11.5345    3.0152   65.2255 C.2     1  <0>         0.5000
     22 N22       -12.0352    3.5012   66.3785 N.am    1  <0>        -0.8500
     23 O23       -11.4594    3.7294   64.2482 O.2     1  <0>        -0.5200
     24 C24       -11.4016    0.9823   63.7731 C.3     1  <0>         0.0600
     25 H25        -9.3374   -4.1750   60.6531 H       1  <0>         0.0700
     26 H26        -8.8289   -3.0375   59.3820 H       1  <0>         0.0600
     27 H27        -8.6987   -2.5735   61.0955 H       1  <0>         0.0700
     28 H28        -9.9143   -4.5965   58.7464 H       1  <0>         0.1400
     29 H29       -11.2517   -5.8423   57.0966 H       1  <0>         0.1300
     30 H30       -14.6403   -3.4173   58.0154 H       1  <0>         0.1400
     31 H31       -13.3031   -2.1769   59.6693 H       1  <0>         0.1300
     32 H32       -11.8757   -0.6134   58.3132 H       1  <0>         0.0600
     33 H33       -10.2821    0.1792   58.3356 H       1  <0>         0.0800
     34 H34       -10.4160   -1.5371   57.8837 H       1  <0>         0.0800
     35 H35       -11.1283   -1.1481   62.6387 H       1  <0>         0.1100
     36 H36        -9.3634   -1.1981   62.4126 H       1  <0>         0.0700
     37 H37        -9.3017   -0.5821   64.6858 H       1  <0>         0.0400
     38 H38        -8.1316    0.5254   63.8975 H       1  <0>         0.1200
     39 H39        -9.2231    1.2350   66.2669 H       1  <0>         0.0900
     40 H40        -9.0777    2.4661   64.9697 H       1  <0>         0.0900
     41 H41       -11.0733    0.5919   66.9160 H       1  <0>         0.3800
     42 H42       -12.3367    4.4219   66.4265 H       1  <0>         0.4000
     43 H43       -12.0941    2.9302   67.1605 H       1  <0>         0.4100
     44 H44       -11.9288    1.7172   63.1647 H       1  <0>         0.1100
     45 H45       -12.0151    0.0899   63.8966 H       1  <0>         0.0700
@<TRIPOS>BOND
     1     1     2    1
     2     1    25    1
     3     1    26    1
     4     1    27    1
     5     2     3    1
     6     2     4    1
     7     2    11    1
     8     4    10   ar
     9     4     5   ar
    10     5     6   ar
    11     5    28    1
    12     6     7   ar
    13     6    29    1
    14     7     8    1
    15     7     9   ar
    16     9    10   ar
    17     9    30    1
    18    10    31    1
    19    11    12    1
    20    11    13   am
    21    12    32    1
    22    12    33    1
    23    12    34    1
    24    13    14    2
    25    13    15    1
    26    15    16    1
    27    15    35    1
    28    15    36    1
    29    16    24    1
    30    16    17    1
    31    17    18    1
    32    17    37    1
    33    17    38    1
    34    18    19    1
    35    18    39    1
    36    18    40    1
    37    19    20    1
    38    19    21    1
    39    19    24    1
    40    20    41    1
    41    21    22   am
    42    21    23    2
    43    22    42    1
    44    22    43    1
    45    24    44    1
    46    24    45    1
@<TRIPOS>SUBSTRUCTURE
     1 <0>         1 TEMP              0 ****  ****    0 ROOT


##########                                Name:    ZINC001757264545
##########                DOCK_Rotatable_Bonds:                  11
##########                         Heavy_Atoms:                  25
##########                    Molecular_Weight:             344.497
##########                DOCK_Rotatable_Bonds:                  11
##########                       Formal_Charge:          0.00999946
##########                     HBond_Acceptors:                   4
##########                        HBond_Donors:                   2
##########                         Heavy_Atoms:                  25
##########                          Grid_Score:          -31.399946
##########                     Grid_vdw_energy:          -31.455137
##########                      Grid_es_energy:            0.055192
##########           Internal_energy_repulsive:            7.534274

@<TRIPOS>MOLECULE
ZINC001757264545
 57 57 1 0 0
SMALL
USER_CHARGES


@<TRIPOS>ATOM
      1 C1        -14.6555   -5.8716   57.0554 C.1     1  ZINC001757264545   -0.2100
      2 C2        -14.3422   -5.5947   55.9584 C.1     1  ZINC001757264545   -0.1900
      3 C3        -13.9494   -5.2476   54.5829 C.3     1  ZINC001757264545   -0.0100
      4 C4        -12.8684   -4.1654   54.6190 C.3     1  ZINC001757264545   -0.1200
      5 C5        -12.5043   -3.7605   53.1892 C.3     1  ZINC001757264545   -0.1200
      6 C6        -11.1360   -3.0759   53.1859 C.3     1  ZINC001757264545   -0.1000
      7 C7        -11.0508   -2.1122   52.0005 C.3     1  ZINC001757264545   -0.1400
      8 C8        -11.3239   -0.7079   52.4741 C.2     1  ZINC001757264545    0.5100
      9 O9        -12.4412   -0.3930   52.8256 O.2     1  ZINC001757264545   -0.5400
     10 N10       -10.3267    0.1982   52.5070 N.am    1  ZINC001757264545   -0.7300
     11 C11       -10.5918    1.5628   52.9690 C.3     1  ZINC001757264545    0.1400
     12 H12       -11.6601    1.6848   53.1480 H       1  ZINC001757264545    0.1000
     13 C13       -10.1365    2.5602   51.9019 C.3     1  ZINC001757264545   -0.1300
     14 C14       -10.4134    3.9855   52.3845 C.3     1  ZINC001757264545   -0.1200
     15 C15        -9.6462    4.2423   53.6831 C.3     1  ZINC001757264545   -0.1200
     16 C16       -10.1016    3.2450   54.7502 C.3     1  ZINC001757264545   -0.1300
     17 C17        -9.8246    1.8198   54.2676 C.3     1  ZINC001757264545    0.1400
     18 H18        -8.7564    1.6979   54.0886 H       1  ZINC001757264545    0.1000
     19 N19       -10.2606    0.8648   55.2895 N.am    1  ZINC001757264545   -0.7200
     20 C20        -9.4330    0.5356   56.3010 C.2     1  ZINC001757264545    0.6400
     21 O21        -8.3250    1.0324   56.3664 O.2     1  ZINC001757264545   -0.5200
     22 C22        -9.8586   -0.3992   57.2990 C.1     1  ZINC001757264545   -0.2300
     23 C23       -10.2075   -1.1655   58.1171 C.1     1  ZINC001757264545   -0.0500
     24 C24       -10.6449   -2.1264   59.1428 C.3     1  ZINC001757264545    0.0300
     25 C25        -9.8760   -1.8721   60.4408 C.3     1  ZINC001757264545   -0.1400
     26 C26       -12.1440   -1.9548   59.3961 C.3     1  ZINC001757264545   -0.1400
     27 C27       -10.3694   -3.5510   58.6576 C.3     1  ZINC001757264545   -0.1400
     28 H28       -14.9357   -6.1192   58.0366 H       1  ZINC001757264545    0.2200
     29 H29       -14.8181   -4.8753   54.0400 H       1  ZINC001757264545    0.0900
     30 H30       -13.5599   -6.1337   54.0817 H       1  ZINC001757264545    0.0900
     31 H31       -11.9832   -4.5528   55.1235 H       1  ZINC001757264545    0.0700
     32 H32       -13.2429   -3.2957   55.1587 H       1  ZINC001757264545    0.0700
     33 H33       -13.2561   -3.0717   52.8040 H       1  ZINC001757264545    0.0700
     34 H34       -12.4678   -4.6485   52.5582 H       1  ZINC001757264545    0.0700
     35 H35       -10.3530   -3.8291   53.0987 H       1  ZINC001757264545    0.0700
     36 H36       -11.0049   -2.5213   54.1151 H       1  ZINC001757264545    0.0700
     37 H37       -11.7900   -2.3928   51.2502 H       1  ZINC001757264545    0.0900
     38 H38       -10.0533   -2.1608   51.5638 H       1  ZINC001757264545    0.0900
     39 H39        -9.4334   -0.0533   52.2247 H       1  ZINC001757264545    0.4000
     40 H40        -9.0682    2.4383   51.7229 H       1  ZINC001757264545    0.0700
     41 H41       -10.6831    2.3772   50.9767 H       1  ZINC001757264545    0.0800
     42 H42       -10.0890    4.6960   51.6242 H       1  ZINC001757264545    0.0700
     43 H43       -11.4817    4.1073   52.5635 H       1  ZINC001757264545    0.0700
     44 H44        -9.8434    5.2577   54.0268 H       1  ZINC001757264545    0.0700
     45 H45        -8.5779    4.1204   53.5041 H       1  ZINC001757264545    0.0700
     46 H46       -11.1699    3.3668   54.9292 H       1  ZINC001757264545    0.0700
     47 H47        -9.5549    3.4280   55.6753 H       1  ZINC001757264545    0.0800
     48 H48       -11.1449    0.4694   55.2380 H       1  ZINC001757264545    0.4000
     49 H49       -10.0722   -0.8571   60.7865 H       1  ZINC001757264545    0.0600
     50 H50       -10.1998   -2.5836   61.2004 H       1  ZINC001757264545    0.0700
     51 H51        -8.8080   -1.9943   60.2603 H       1  ZINC001757264545    0.0600
     52 H52       -12.6918   -2.1360   58.4714 H       1  ZINC001757264545    0.0600
     53 H53       -12.4679   -2.6664   60.1556 H       1  ZINC001757264545    0.0700
     54 H54       -12.3402   -0.9399   59.7418 H       1  ZINC001757264545    0.0600
     55 H55        -9.3014   -3.6733   58.4771 H       1  ZINC001757264545    0.0600
     56 H56       -10.6933   -4.2626   59.4171 H       1  ZINC001757264545    0.0700
     57 H57       -10.9172   -3.7322   57.7328 H       1  ZINC001757264545    0.0600
@<TRIPOS>BOND
     1     1     2    3
     2     1    28    1
     3     2     3    1
     4     3     4    1
     5     3    29    1
     6     3    30    1
     7     4     5    1
     8     4    31    1
     9     4    32    1
    10     5     6    1
    11     5    33    1
    12     5    34    1
    13     6     7    1
    14     6    35    1
    15     6    36    1
    16     7     8    1
    17     7    37    1
    18     7    38    1
    19     8     9    2
    20     8    10   am
    21    10    11    1
    22    10    39    1
    23    11    12    1
    24    11    17    1
    25    11    13    1
    26    13    14    1
    27    13    40    1
    28    13    41    1
    29    14    15    1
    30    14    42    1
    31    14    43    1
    32    15    16    1
    33    15    44    1
    34    15    45    1
    35    16    17    1
    36    16    46    1
    37    16    47    1
    38    17    18    1
    39    17    19    1
    40    19    20   am
    41    19    48    1
    42    20    21    2
    43    20    22    1
    44    22    23    3
    45    23    24    1
    46    24    25    1
    47    24    26    1
    48    24    27    1
    49    25    49    1
    50    25    50    1
    51    25    51    1
    52    26    52    1
    53    26    53    1
    54    26    54    1
    55    27    55    1
    56    27    56    1
    57    27    57    1
@<TRIPOS>SUBSTRUCTURE
     1 ZINC001757264545        1 TEMP              0 ****  ****    0 ROOT


##########                                Name:    ZINC000763800048
##########                DOCK_Rotatable_Bonds:                   8
##########                         Heavy_Atoms:                  23
##########                    Molecular_Weight:             329.783
##########                DOCK_Rotatable_Bonds:                   8
##########                       Formal_Charge:           0.0199994
##########                     HBond_Acceptors:                   5
##########                        HBond_Donors:                   1
##########                         Heavy_Atoms:                  23
##########                          Grid_Score:          -31.378555
##########                     Grid_vdw_energy:          -31.102432
##########                      Grid_es_energy:           -0.276123
##########           Internal_energy_repulsive:           10.250638

@<TRIPOS>MOLECULE
ZINC000763800048
 39 40 1 0 0
SMALL
USER_CHARGES


@<TRIPOS>ATOM
      1 C1        -10.5518   -2.1536   52.2411 C.3     1  ZINC000763800048    0.0400
      2 O2        -11.9992   -2.0452   52.2019 O.3     1  ZINC000763800048   -0.3600
      3 C3        -12.6980   -2.9668   52.8830 C.2     1  ZINC000763800048    0.4600
      4 O4        -13.9042   -2.9053   52.9194 O.2     1  ZINC000763800048   -0.4900
      5 C5        -11.9781   -4.0781   53.6025 C.3     1  ZINC000763800048   -0.0700
      6 C6        -12.6833   -4.3755   54.9008 C.ar    1  ZINC000763800048   -0.0600
      7 C7        -13.5166   -5.4746   54.9979 C.ar    1  ZINC000763800048   -0.1200
      8 C8        -14.1657   -5.7511   56.1875 C.ar    1  ZINC000763800048   -0.1000
      9 C9        -13.9828   -4.9302   57.2827 C.ar    1  ZINC000763800048   -0.1100
     10 C10       -13.1458   -3.8254   57.1886 C.ar    1  ZINC000763800048    0.1500
     11 N11       -12.9584   -2.9921   58.2956 N.am    1  ZINC000763800048   -0.6700
     12 C12       -11.9342   -3.2167   59.1424 C.2     1  ZINC000763800048    0.5500
     13 O13       -11.1724   -4.1449   58.9434 O.2     1  ZINC000763800048   -0.5200
     14 C14       -11.7381   -2.3445   60.3010 C.2     1  ZINC000763800048   -0.2100
     15 C15       -10.5483   -1.7400   60.4963 C.2     1  ZINC000763800048   -0.0100
     16 C16       -10.3516   -0.8617   61.6604 C.ar    1  ZINC000763800048   -0.0800
     17 C17        -9.3747   -1.1668   62.6138 C.ar    1  ZINC000763800048   -0.0900
     18 C18        -9.1961   -0.3396   63.7017 C.ar    1  ZINC000763800048   -0.1100
     19 C19        -9.9818    0.7916   63.8525 C.ar    1  ZINC000763800048   -0.0200
     20 Cl20       -9.7501    1.8273   65.2262 Cl      1  ZINC000763800048   -0.0600
     21 C21       -10.9511    1.1003   62.9119 C.ar    1  ZINC000763800048   -0.1100
     22 C22       -11.1369    0.2853   61.8159 C.ar    1  ZINC000763800048   -0.0800
     23 C23       -12.4918   -3.5533   55.9940 C.ar    1  ZINC000763800048   -0.1300
     24 H24       -10.1111   -1.3497   51.6515 H       1  ZINC000763800048    0.1000
     25 H25       -10.2095   -2.0769   53.2730 H       1  ZINC000763800048    0.0600
     26 H26       -10.2482   -3.1155   51.8280 H       1  ZINC000763800048    0.0600
     27 H27       -11.9735   -4.9718   52.9786 H       1  ZINC000763800048    0.1200
     28 H28       -10.9521   -3.7731   53.8081 H       1  ZINC000763800048    0.1200
     29 H29       -13.6614   -6.1182   54.1430 H       1  ZINC000763800048    0.1200
     30 H30       -14.8165   -6.6100   56.2600 H       1  ZINC000763800048    0.1300
     31 H31       -14.4901   -5.1466   58.2112 H       1  ZINC000763800048    0.1400
     32 H32       -13.5655   -2.2524   58.4541 H       1  ZINC000763800048    0.4100
     33 H33       -12.5459   -2.1849   60.9997 H       1  ZINC000763800048    0.1300
     34 H34        -9.7400   -1.9006   59.7983 H       1  ZINC000763800048    0.1400
     35 H35        -8.7620   -2.0487   62.4978 H       1  ZINC000763800048    0.1400
     36 H36        -8.4420   -0.5740   64.4385 H       1  ZINC000763800048    0.1400
     37 H37       -11.5599    1.9837   63.0359 H       1  ZINC000763800048    0.1400
     38 H38       -11.8927    0.5273   61.0834 H       1  ZINC000763800048    0.1400
     39 H39       -11.8401   -2.6954   55.9177 H       1  ZINC000763800048    0.1300
@<TRIPOS>BOND
     1     1     2    1
     2     1    24    1
     3     1    25    1
     4     1    26    1
     5     2     3    1
     6     3     4    2
     7     3     5    1
     8     5     6    1
     9     5    27    1
    10     5    28    1
    11     6    23   ar
    12     6     7   ar
    13     7     8   ar
    14     7    29    1
    15     8     9   ar
    16     8    30    1
    17     9    10   ar
    18     9    31    1
    19    10    11    1
    20    10    23   ar
    21    11    12   am
    22    11    32    1
    23    12    13    2
    24    12    14    1
    25    14    15    2
    26    14    33    1
    27    15    16    1
    28    15    34    1
    29    16    22   ar
    30    16    17   ar
    31    17    18   ar
    32    17    35    1
    33    18    19   ar
    34    18    36    1
    35    19    20    1
    36    19    21   ar
    37    21    22   ar
    38    21    37    1
    39    22    38    1
    40    23    39    1
@<TRIPOS>SUBSTRUCTURE
     1 ZINC000763800048        1 TEMP              0 ****  ****    0 ROOT


##########                                Name:    ZINC000477669194
##########                DOCK_Rotatable_Bonds:                   6
##########                         Heavy_Atoms:                  26
##########                    Molecular_Weight:             387.483
##########                DOCK_Rotatable_Bonds:                   6
##########                       Formal_Charge:         4.47035e-07
##########                     HBond_Acceptors:                   8
##########                        HBond_Donors:                   2
##########                         Heavy_Atoms:                  26
##########                          Grid_Score:          -31.371046
##########                     Grid_vdw_energy:          -27.870279
##########                      Grid_es_energy:           -3.500767
##########           Internal_energy_repulsive:            6.896349

@<TRIPOS>MOLECULE
ZINC000477669194
 43 45 1 0 0
SMALL
USER_CHARGES


@<TRIPOS>ATOM
      1 C1         -9.6261    0.6711   53.7258 C.3     1  ZINC000477669194   -0.0800
      2 C2        -10.8142    0.1104   54.4641 C.2     1  ZINC000477669194    0.0500
      3 N3        -11.0549   -1.1450   54.6223 N.2     1  ZINC000477669194   -0.4900
      4 C4        -12.1464   -1.4702   55.3000 C.2     1  ZINC000477669194    0.1200
      5 C5        -12.5471   -2.8745   55.5588 C.ar    1  ZINC000477669194   -0.0600
      6 C6        -12.9025   -3.7068   54.5006 C.ar    1  ZINC000477669194   -0.0800
      7 C7        -13.2750   -5.0135   54.7466 C.ar    1  ZINC000477669194   -0.1400
      8 C8        -13.2967   -5.5005   56.0414 C.ar    1  ZINC000477669194   -0.0900
      9 C9        -12.9463   -4.6837   57.1000 C.ar    1  ZINC000477669194   -0.1300
     10 C10       -12.5642   -3.3711   56.8675 C.ar    1  ZINC000477669194    0.1800
     11 N11       -12.2091   -2.5439   57.9366 N.am    1  ZINC000477669194   -0.6500
     12 C12       -11.0028   -2.6798   58.5220 C.2     1  ZINC000477669194    0.5600
     13 O13       -10.2232   -3.5222   58.1199 O.2     1  ZINC000477669194   -0.5200
     14 C14       -10.6280   -1.8069   59.6502 C.ar    1  ZINC000477669194   -0.1500
     15 C15        -9.8310   -2.3041   60.6857 C.ar    1  ZINC000477669194   -0.0600
     16 C16        -9.4826   -1.4870   61.7368 C.ar    1  ZINC000477669194   -0.1400
     17 C17        -9.9229   -0.1666   61.7696 C.ar    1  ZINC000477669194    0.1700
     18 N18        -9.5691    0.6564   62.8332 N.am    1  ZINC000477669194   -1.0600
     19 S19       -10.1073    0.3122   64.3610 S.o2    1  ZINC000477669194    2.6100
     20 C20        -9.4088    1.6293   65.3944 C.3     1  ZINC000477669194   -0.6700
     21 O21       -11.5195    0.4433   64.2729 O.2     1  ZINC000477669194   -0.9400
     22 O22        -9.5055   -0.9372   64.6713 O.2     1  ZINC000477669194   -0.9500
     23 C23       -10.7162    0.3315   60.7398 C.ar    1  ZINC000477669194   -0.1600
     24 C24       -11.0640   -0.4790   59.6835 C.ar    1  ZINC000477669194   -0.0300
     25 C25       -12.8603   -0.4116   55.7338 C.2     1  ZINC000477669194   -0.2600
     26 S26       -12.0273    1.0516   55.2151 S.3     1  ZINC000477669194    0.1500
     27 H27        -9.6655    1.7601   53.7477 H       1  ZINC000477669194    0.0800
     28 H28        -8.7076    0.3309   54.2041 H       1  ZINC000477669194    0.0900
     29 H29        -9.6459    0.3275   52.6915 H       1  ZINC000477669194    0.0900
     30 H30       -12.8874   -3.3305   53.4884 H       1  ZINC000477669194    0.1300
     31 H31       -13.5509   -5.6578   53.9250 H       1  ZINC000477669194    0.1300
     32 H32       -13.5891   -6.5236   56.2259 H       1  ZINC000477669194    0.1300
     33 H33       -12.9659   -5.0694   58.1086 H       1  ZINC000477669194    0.1500
     34 H34       -12.8309   -1.8721   58.2573 H       1  ZINC000477669194    0.4200
     35 H35        -9.4895   -3.3283   60.6611 H       1  ZINC000477669194    0.1300
     36 H36        -8.8674   -1.8705   62.5373 H       1  ZINC000477669194    0.1400
     37 H37        -9.0071    1.4320   62.6801 H       1  ZINC000477669194    0.4300
     38 H38        -9.8386    2.5873   65.1017 H       1  ZINC000477669194    0.1300
     39 H39        -9.6408    1.4317   66.4409 H       1  ZINC000477669194    0.1400
     40 H40        -8.3274    1.6605   65.2615 H       1  ZINC000477669194    0.1300
     41 H41       -11.0558    1.3564   60.7679 H       1  ZINC000477669194    0.1700
     42 H42       -11.6792   -0.0918   58.8848 H       1  ZINC000477669194    0.1500
     43 H43       -13.7778   -0.4534   56.3018 H       1  ZINC000477669194    0.1800
@<TRIPOS>BOND
     1     1     2    1
     2     1    27    1
     3     1    28    1
     4     1    29    1
     5     2    26    1
     6     2     3    2
     7     3     4    1
     8     4     5    1
     9     4    25    2
    10     5    10   ar
    11     5     6   ar
    12     6     7   ar
    13     6    30    1
    14     7     8   ar
    15     7    31    1
    16     8     9   ar
    17     8    32    1
    18     9    10   ar
    19     9    33    1
    20    10    11    1
    21    11    12   am
    22    11    34    1
    23    12    13    2
    24    12    14    1
    25    14    24   ar
    26    14    15   ar
    27    15    16   ar
    28    15    35    1
    29    16    17   ar
    30    16    36    1
    31    17    18    1
    32    17    23   ar
    33    18    19   am
    34    18    37    1
    35    19    20    1
    36    19    21    2
    37    19    22    2
    38    20    38    1
    39    20    39    1
    40    20    40    1
    41    23    24   ar
    42    23    41    1
    43    24    42    1
    44    25    26    1
    45    25    43    1
@<TRIPOS>SUBSTRUCTURE
     1 ZINC000477669194        1 TEMP              0 ****  ****    0 ROOT


##########                                Name:    ZINC000463474628
##########                DOCK_Rotatable_Bonds:                   5
##########                         Heavy_Atoms:                  25
##########                    Molecular_Weight:              407.35
##########                DOCK_Rotatable_Bonds:                   5
##########                       Formal_Charge:           0.0200004
##########                     HBond_Acceptors:                   4
##########                        HBond_Donors:                   0
##########                         Heavy_Atoms:                  25
##########                          Grid_Score:          -31.322170
##########                     Grid_vdw_energy:          -30.395973
##########                      Grid_es_energy:           -0.926196
##########           Internal_energy_repulsive:           72.965477

@<TRIPOS>MOLECULE
ZINC000463474628
 52 54 1 0 0
SMALL
USER_CHARGES


@<TRIPOS>ATOM
      1 C1        -14.4895   -0.3329   61.8384 C.3     1  ZINC000463474628   -0.1400
      2 C2        -13.5445   -0.3636   60.6355 C.3     1  ZINC000463474628   -0.1300
      3 C3        -12.3194    0.5053   60.9271 C.3     1  ZINC000463474628    0.1400
      4 H4        -11.6225   -0.0388   61.5646 H       1  ZINC000463474628    0.0800
      5 C5        -12.7562    1.8120   61.6223 C.3     1  ZINC000463474628   -0.1300
      6 C6        -11.8185    2.8732   60.9884 C.3     1  ZINC000463474628   -0.1300
      7 C7        -11.6915    2.3484   59.5365 C.3     1  ZINC000463474628    0.0900
      8 N8        -11.6588    0.8771   59.6673 N.am    1  ZINC000463474628   -0.6100
      9 C9        -11.1158    0.0214   58.7789 C.2     1  ZINC000463474628    0.5300
     10 O10       -10.5966    0.4451   57.7681 O.2     1  ZINC000463474628   -0.5100
     11 C11       -11.1539   -1.4621   59.0416 C.3     1  ZINC000463474628   -0.1200
     12 H12       -12.1736   -1.7629   59.2820 H       1  ZINC000463474628    0.1000
     13 C13       -10.2324   -1.7965   60.2167 C.3     1  ZINC000463474628   -0.1000
     14 C14       -10.2954   -3.2981   60.5054 C.3     1  ZINC000463474628   -0.1300
     15 C15        -9.8102   -4.0714   59.2752 C.3     1  ZINC000463474628    0.0900
     16 N16       -10.5974   -3.6474   58.1093 N.am    1  ZINC000463474628   -0.6000
     17 C17       -11.2333   -4.5557   57.3430 C.2     1  ZINC000463474628    0.5700
     18 O18       -11.1585   -5.7384   57.6138 O.2     1  ZINC000463474628   -0.5200
     19 C19       -12.0214   -4.1137   56.1735 C.ar    1  ZINC000463474628   -0.1200
     20 C20       -11.3893   -3.8752   54.9520 C.ar    1  ZINC000463474628   -0.0800
     21 C21       -12.1301   -3.4628   53.8642 C.ar    1  ZINC000463474628   -0.1000
     22 C22       -13.4982   -3.2852   53.9819 C.ar    1  ZINC000463474628   -0.0700
     23 Br23      -14.5066   -2.7203   52.4854 Br      1  ZINC000463474628   -0.0400
     24 C24       -14.1312   -3.5202   55.1912 C.ar    1  ZINC000463474628   -0.0900
     25 C25       -13.4022   -3.9383   56.2843 C.ar    1  ZINC000463474628   -0.0300
     26 C26       -14.0924   -4.1934   57.5994 C.3     1  ZINC000463474628   -0.1300
     27 C27       -10.6792   -2.2145   57.7945 C.3     1  ZINC000463474628    0.1200
     28 H28       -14.1578   -1.0598   62.5796 H       1  ZINC000463474628    0.0700
     29 H29       -14.4841    0.6639   62.2793 H       1  ZINC000463474628    0.0600
     30 H30       -15.4999   -0.5808   61.5131 H       1  ZINC000463474628    0.0300
     31 H31       -13.2265   -1.3895   60.4495 H       1  ZINC000463474628    0.0600
     32 H32       -14.0621    0.0213   59.7569 H       1  ZINC000463474628    0.0700
     33 H33       -13.7993    2.0371   61.4000 H       1  ZINC000463474628    0.0800
     34 H34       -12.5952    1.7487   62.6985 H       1  ZINC000463474628    0.0800
     35 H35       -12.2774    3.8617   61.0080 H       1  ZINC000463474628    0.0900
     36 H36       -10.8487    2.8846   61.4859 H       1  ZINC000463474628    0.0800
     37 H37       -12.5523    2.6588   58.9444 H       1  ZINC000463474628    0.0700
     38 H38       -10.7681    2.7081   59.0825 H       1  ZINC000463474628    0.0800
     39 H39        -9.2089   -1.5175   59.9664 H       1  ZINC000463474628    0.0800
     40 H40       -10.5537   -1.2434   61.0992 H       1  ZINC000463474628    0.0700
     41 H41        -9.6569   -3.5320   61.3573 H       1  ZINC000463474628    0.0800
     42 H42       -11.3231   -3.5822   60.7317 H       1  ZINC000463474628    0.0700
     43 H43        -8.7557   -3.8572   59.1014 H       1  ZINC000463474628    0.0800
     44 H44        -9.9460   -5.1405   59.4385 H       1  ZINC000463474628    0.1000
     45 H45       -10.3221   -4.0131   54.8591 H       1  ZINC000463474628    0.1400
     46 H46       -11.6421   -3.2777   52.9187 H       1  ZINC000463474628    0.1400
     47 H47       -15.1986   -3.3796   55.2770 H       1  ZINC000463474628    0.1400
     48 H48       -14.3299   -5.2538   57.6855 H       1  ZINC000463474628    0.0700
     49 H49       -13.4347   -3.9008   58.4178 H       1  ZINC000463474628    0.0900
     50 H50       -15.0122   -3.6103   57.6462 H       1  ZINC000463474628    0.0700
     51 H51       -11.3879   -2.0589   56.9811 H       1  ZINC000463474628    0.1000
     52 H52        -9.6956   -1.8484   57.5001 H       1  ZINC000463474628    0.0800
@<TRIPOS>BOND
     1     1     2    1
     2     1    28    1
     3     1    29    1
     4     1    30    1
     5     2     3    1
     6     2    31    1
     7     2    32    1
     8     3     4    1
     9     3     8    1
    10     3     5    1
    11     5     6    1
    12     5    33    1
    13     5    34    1
    14     6     7    1
    15     6    35    1
    16     6    36    1
    17     7     8    1
    18     7    37    1
    19     7    38    1
    20     8     9   am
    21     9    10    2
    22     9    11    1
    23    11    12    1
    24    11    27    1
    25    11    13    1
    26    13    14    1
    27    13    39    1
    28    13    40    1
    29    14    15    1
    30    14    41    1
    31    14    42    1
    32    15    16    1
    33    15    43    1
    34    15    44    1
    35    16    17   am
    36    16    27    1
    37    17    18    2
    38    17    19    1
    39    19    25   ar
    40    19    20   ar
    41    20    21   ar
    42    20    45    1
    43    21    22   ar
    44    21    46    1
    45    22    23    1
    46    22    24   ar
    47    24    25   ar
    48    24    47    1
    49    25    26    1
    50    26    48    1
    51    26    49    1
    52    26    50    1
    53    27    51    1
    54    27    52    1
@<TRIPOS>SUBSTRUCTURE
     1 ZINC000463474628        1 TEMP              0 ****  ****    0 ROOT


##########                                Name:    ZINC000899027326
##########                DOCK_Rotatable_Bonds:                   5
##########                         Heavy_Atoms:                  22
##########                    Molecular_Weight:             346.169
##########                DOCK_Rotatable_Bonds:                   5
##########                       Formal_Charge:           0.0300005
##########                     HBond_Acceptors:                   9
##########                        HBond_Donors:                   1
##########                         Heavy_Atoms:                  22
##########                          Grid_Score:          -31.306564
##########                     Grid_vdw_energy:          -30.158211
##########                      Grid_es_energy:           -1.148353
##########           Internal_energy_repulsive:           16.898310

@<TRIPOS>MOLECULE
ZINC000899027326
 35 36 1 0 0
SMALL
USER_CHARGES


@<TRIPOS>ATOM
      1 C1        -14.4672   -6.0846   55.7019 C.3     1  ZINC000899027326   -0.1500
      2 C2        -14.1722   -4.5885   55.8271 C.3     1  ZINC000899027326    0.1100
      3 H3        -15.0659   -4.0032   55.6106 H       1  ZINC000899027326    0.1400
      4 C4        -13.6435   -4.2630   57.2099 C.2     1  ZINC000899027326    0.5300
      5 O5        -14.2154   -4.4174   58.2676 O.2     1  ZINC000899027326   -0.4500
      6 N6        -12.4051   -3.7669   57.0189 N.am    1  ZINC000899027326   -0.3700
      7 N7        -11.5607   -3.3392   58.0518 N.am    1  ZINC000899027326   -0.5000
      8 C8        -10.6800   -4.1985   58.6018 C.2     1  ZINC000899027326    0.5200
      9 O9        -10.6176   -5.3416   58.2016 O.2     1  ZINC000899027326   -0.4800
     10 C10        -9.7730   -3.7388   59.7141 C.3     1  ZINC000899027326    0.0500
     11 O11       -10.3083   -2.5535   60.3061 O.3     1  ZINC000899027326   -0.2700
     12 C12       -10.0908   -1.3832   59.6493 C.ar    1  ZINC000899027326    0.1400
     13 C13        -9.4652   -1.3874   58.4120 C.ar    1  ZINC000899027326   -0.1900
     14 C14        -9.2449   -0.1969   57.7458 C.ar    1  ZINC000899027326   -0.0600
     15 C15        -9.6479    0.9991   58.3122 C.ar    1  ZINC000899027326   -0.0600
     16 Cl16       -9.3703    2.4929   57.4725 Cl      1  ZINC000899027326   -0.0500
     17 C17       -10.2725    1.0063   59.5471 C.ar    1  ZINC000899027326   -0.0600
     18 C18       -10.4999   -0.1826   60.2141 C.ar    1  ZINC000899027326   -0.0500
     19 Cl19      -11.2835   -0.1736   61.7633 Cl      1  ZINC000899027326   -0.0300
     20 C20       -12.0813   -3.7341   55.7211 C.2     1  ZINC000899027326    0.7000
     21 O21       -11.0160   -3.3271   55.3008 O.2     1  ZINC000899027326   -0.5200
     22 N22       -13.0693   -4.2010   54.9308 N.am    1  ZINC000899027326   -0.6200
     23 C23       -13.0460   -4.3050   53.4697 C.3     1  ZINC000899027326    0.1200
     24 H24       -13.5665   -6.6532   55.9337 H       1  ZINC000899027326    0.0700
     25 H25       -15.2591   -6.3583   56.3990 H       1  ZINC000899027326    0.0900
     26 H26       -14.7860   -6.3082   54.6839 H       1  ZINC000899027326    0.0900
     27 H27       -11.6098   -2.4245   58.3711 H       1  ZINC000899027326    0.4300
     28 H28        -9.6995   -4.5210   60.4696 H       1  ZINC000899027326    0.1100
     29 H29        -8.7822   -3.5283   59.3114 H       1  ZINC000899027326    0.1100
     30 H30        -9.1500   -2.3207   57.9691 H       1  ZINC000899027326    0.1500
     31 H31        -8.7573   -0.2001   56.7822 H       1  ZINC000899027326    0.1500
     32 H32       -10.5865    1.9410   59.9878 H       1  ZINC000899027326    0.1500
     33 H33       -12.0895   -3.9411   53.0946 H       1  ZINC000899027326    0.0900
     34 H34       -13.1782   -5.3467   53.1774 H       1  ZINC000899027326    0.0700
     35 H35       -13.8531   -3.7046   53.0497 H       1  ZINC000899027326    0.0700
@<TRIPOS>BOND
     1     1     2    1
     2     1    24    1
     3     1    25    1
     4     1    26    1
     5     2     3    1
     6     2    22    1
     7     2     4    1
     8     4     5    2
     9     4     6   am
    10     6     7    1
    11     6    20   am
    12     7     8   am
    13     7    27    1
    14     8     9    2
    15     8    10    1
    16    10    11    1
    17    10    28    1
    18    10    29    1
    19    11    12    1
    20    12    18   ar
    21    12    13   ar
    22    13    14   ar
    23    13    30    1
    24    14    15   ar
    25    14    31    1
    26    15    16    1
    27    15    17   ar
    28    17    18   ar
    29    17    32    1
    30    18    19    1
    31    20    21    2
    32    20    22   am
    33    22    23    1
    34    23    33    1
    35    23    34    1
    36    23    35    1
@<TRIPOS>SUBSTRUCTURE
     1 ZINC000899027326        1 TEMP              0 ****  ****    0 ROOT


##########                                Name:    ZINC000337709254
##########                DOCK_Rotatable_Bonds:                   7
##########                         Heavy_Atoms:                  22
##########                    Molecular_Weight:              329.42
##########                DOCK_Rotatable_Bonds:                   7
##########                       Formal_Charge:           0.0300004
##########                     HBond_Acceptors:                   8
##########                        HBond_Donors:                   2
##########                         Heavy_Atoms:                  22
##########                          Grid_Score:          -31.304649
##########                     Grid_vdw_energy:          -29.600639
##########                      Grid_es_energy:           -1.704009
##########           Internal_energy_repulsive:           18.015963

@<TRIPOS>MOLECULE
ZINC000337709254
 45 46 1 0 0
SMALL
USER_CHARGES


@<TRIPOS>ATOM
      1 C1        -16.9256   -1.2354   59.7963 C.3     1  ZINC000337709254   -0.6700
      2 S2        -17.5123   -2.3984   58.5339 S.o2    1  ZINC000337709254    2.6100
      3 O3        -18.8388   -2.8191   58.8214 O.2     1  ZINC000337709254   -0.9500
      4 O4        -17.1516   -1.9482   57.2352 O.2     1  ZINC000337709254   -0.9500
      5 N5        -16.5939   -3.7569   58.7648 N.am    1  ZINC000337709254   -1.1200
      6 C6        -15.1359   -3.6851   58.6412 C.3     1  ZINC000337709254    0.1200
      7 C7        -14.7047   -4.3172   57.3162 C.3     1  ZINC000337709254   -0.1100
      8 H8        -15.1219   -5.3196   57.2192 H       1  ZINC000337709254    0.1100
      9 C9        -15.1427   -3.4301   56.1244 C.3     1  ZINC000337709254   -0.1200
     10 C10       -14.1548   -3.8472   55.0068 C.3     1  ZINC000337709254   -0.1200
     11 C11       -12.8164   -4.0584   55.7443 C.3     1  ZINC000337709254   -0.1400
     12 C12       -13.1660   -4.3605   57.2142 C.3     1  ZINC000337709254    0.1500
     13 H13       -12.7976   -5.3487   57.4901 H       1  ZINC000337709254    0.1000
     14 N14       -12.5774   -3.3437   58.0892 N.am    1  ZINC000337709254   -0.7200
     15 C15       -11.3219   -3.4991   58.5536 C.2     1  ZINC000337709254    0.5300
     16 O16       -10.6796   -4.4816   58.2482 O.2     1  ZINC000337709254   -0.5100
     17 C17       -10.7158   -2.4521   59.4522 C.3     1  ZINC000337709254    0.0200
     18 C18        -9.8436   -1.5691   58.6609 C.1     1  ZINC000337709254    0.2000
     19 N19        -9.1705   -0.8875   58.0502 N.1     1  ZINC000337709254   -0.3900
     20 C20       -11.8307   -1.6264   60.1014 C.3     1  ZINC000337709254   -0.1500
     21 C21       -11.2095   -0.6183   61.0717 C.3     1  ZINC000337709254    0.0600
     22 O22       -10.4340   -1.3153   62.0489 O.3     1  ZINC000337709254   -0.3700
     23 C23        -9.3476   -2.0669   61.5039 C.3     1  ZINC000337709254    0.0600
     24 C24        -9.8940   -3.1333   60.5509 C.3     1  ZINC000337709254   -0.1300
     25 H25       -17.0780   -1.6661   60.7860 H       1  ZINC000337709254    0.1300
     26 H26       -15.8641   -1.0396   59.6447 H       1  ZINC000337709254    0.1300
     27 H27       -17.4823   -0.3016   59.7169 H       1  ZINC000337709254    0.1300
     28 H28       -17.0213   -4.6002   58.9818 H       1  ZINC000337709254    0.4200
     29 H29       -14.8200   -2.6423   58.6659 H       1  ZINC000337709254    0.0600
     30 H30       -14.6742   -4.2244   59.4683 H       1  ZINC000337709254    0.0900
     31 H31       -16.1698   -3.6519   55.8348 H       1  ZINC000337709254    0.0800
     32 H32       -15.0281   -2.3735   56.3668 H       1  ZINC000337709254    0.0700
     33 H33       -14.4812   -4.7742   54.5355 H       1  ZINC000337709254    0.0700
     34 H34       -14.0607   -3.0538   54.2652 H       1  ZINC000337709254    0.0700
     35 H35       -12.2794   -4.9014   55.3093 H       1  ZINC000337709254    0.0800
     36 H36       -12.2089   -3.1557   55.6814 H       1  ZINC000337709254    0.0700
     37 H37       -13.0915   -2.5584   58.3344 H       1  ZINC000337709254    0.4000
     38 H38       -12.3863   -1.0941   59.3294 H       1  ZINC000337709254    0.0900
     39 H39       -12.5044   -2.2882   60.6456 H       1  ZINC000337709254    0.1100
     40 H40       -10.5673    0.0686   60.5205 H       1  ZINC000337709254    0.0500
     41 H41       -12.0007   -0.0568   61.5685 H       1  ZINC000337709254    0.1100
     42 H42        -8.6810   -1.3990   60.9583 H       1  ZINC000337709254    0.0500
     43 H43        -8.7977   -2.5491   62.3121 H       1  ZINC000337709254    0.1100
     44 H44       -10.5287   -3.8255   61.1042 H       1  ZINC000337709254    0.1100
     45 H45        -9.0647   -3.6785   60.1005 H       1  ZINC000337709254    0.0900
@<TRIPOS>BOND
     1     1     2    1
     2     1    25    1
     3     1    26    1
     4     1    27    1
     5     2     3    2
     6     2     4    2
     7     2     5   am
     8     5     6    1
     9     5    28    1
    10     6     7    1
    11     6    29    1
    12     6    30    1
    13     7     8    1
    14     7    12    1
    15     7     9    1
    16     9    10    1
    17     9    31    1
    18     9    32    1
    19    10    11    1
    20    10    33    1
    21    10    34    1
    22    11    12    1
    23    11    35    1
    24    11    36    1
    25    12    13    1
    26    12    14    1
    27    14    15   am
    28    14    37    1
    29    15    16    2
    30    15    17    1
    31    17    24    1
    32    17    18    1
    33    17    20    1
    34    18    19    3
    35    20    21    1
    36    20    38    1
    37    20    39    1
    38    21    22    1
    39    21    40    1
    40    21    41    1
    41    22    23    1
    42    23    24    1
    43    23    42    1
    44    23    43    1
    45    24    44    1
    46    24    45    1
@<TRIPOS>SUBSTRUCTURE
     1 ZINC000337709254        1 TEMP              0 ****  ****    0 ROOT


##########                                Name:    ZINC001060620810
##########                DOCK_Rotatable_Bonds:                   5
##########                         Heavy_Atoms:                  24
##########                    Molecular_Weight:             332.421
##########                DOCK_Rotatable_Bonds:                   5
##########                       Formal_Charge:           0.0299998
##########                     HBond_Acceptors:                   6
##########                        HBond_Donors:                   2
##########                         Heavy_Atoms:                  24
##########                          Grid_Score:          -31.294683
##########                     Grid_vdw_energy:          -31.145863
##########                      Grid_es_energy:           -0.148820
##########           Internal_energy_repulsive:            8.933113

@<TRIPOS>MOLECULE
ZINC001060620810
 49 52 1 0 0
SMALL
USER_CHARGES


@<TRIPOS>ATOM
      1 O1        -15.7305   -3.4724   54.8115 O.2     1  ZINC001060620810   -0.5400
      2 C2        -14.9889   -3.2041   55.7330 C.2     1  ZINC001060620810    0.5500
      3 N3        -13.6727   -3.0219   55.5077 N.am    1  ZINC001060620810   -0.7200
      4 C4        -13.1380   -3.1461   54.1494 C.3     1  ZINC001060620810    0.1400
      5 C5        -13.4702   -1.8826   53.3531 C.3     1  ZINC001060620810   -0.1300
      6 C6        -12.9118   -2.0122   51.9345 C.3     1  ZINC001060620810   -0.1300
      7 C7        -11.3935   -2.1903   51.9985 C.3     1  ZINC001060620810    0.1600
      8 N8        -10.7926   -1.0269   52.6553 N.pl3   1  ZINC001060620810   -0.6900
      9 C9         -9.5198   -0.6112   52.2998 C.ar    1  ZINC001060620810    0.5600
     10 N10        -8.7849   -1.3822   51.5123 N.ar    1  ZINC001060620810   -0.5400
     11 C11        -7.5673   -1.0135   51.1494 C.ar    1  ZINC001060620810    0.1700
     12 C12        -7.0591    0.1918   51.6131 C.ar    1  ZINC001060620810   -0.0700
     13 F13        -5.8178    0.5972   51.2663 F       1  ZINC001060620810   -0.1300
     14 C14        -7.8548    0.9717   52.4406 C.ar    1  ZINC001060620810    0.1800
     15 N15        -9.0656    0.5447   52.7600 N.ar    1  ZINC001060620810   -0.5500
     16 C16       -11.0612   -3.4538   52.7948 C.3     1  ZINC001060620810   -0.1200
     17 C17       -11.6197   -3.3241   54.2133 C.3     1  ZINC001060620810   -0.1300
     18 C18       -15.5393   -3.0746   57.1299 C.3     1  ZINC001060620810   -0.1500
     19 C19       -16.8970   -2.3949   57.2500 C.3     1  ZINC001060620810   -0.1500
     20 C20       -15.6444   -1.6587   57.6746 C.3     1  ZINC001060620810   -0.1100
     21 H21       -15.3253   -0.8473   57.0205 H       1  ZINC001060620810    0.1100
     22 C22       -15.4591   -1.3828   59.1633 C.3     1  ZINC001060620810   -0.0900
     23 C23       -14.7249   -2.5434   59.8351 C.3     1  ZINC001060620810   -0.1200
     24 C24       -15.4696   -3.8442   59.5135 C.3     1  ZINC001060620810   -0.1200
     25 C25       -15.1832   -4.2233   58.0606 C.3     1  ZINC001060620810   -0.0800
     26 H26       -13.0795   -2.8086   56.2449 H       1  ZINC001060620810    0.4000
     27 H27       -13.5851   -4.0117   53.6606 H       1  ZINC001060620810    0.0900
     28 H28       -14.5518   -1.7557   53.3075 H       1  ZINC001060620810    0.0700
     29 H29       -13.0231   -1.0170   53.8418 H       1  ZINC001060620810    0.0600
     30 H30       -13.1485   -1.1121   51.3672 H       1  ZINC001060620810    0.0700
     31 H31       -13.3589   -2.8778   51.4458 H       1  ZINC001060620810    0.0800
     32 H32       -10.9957   -2.2827   50.9878 H       1  ZINC001060620810    0.1000
     33 H33       -11.2860   -0.5476   53.3392 H       1  ZINC001060620810    0.4100
     34 H34        -6.9744   -1.6447   50.5041 H       1  ZINC001060620810    0.1800
     35 H35        -7.4901    1.9150   52.8193 H       1  ZINC001060620810    0.1800
     36 H36        -9.9797   -3.5807   52.8402 H       1  ZINC001060620810    0.0800
     37 H37       -11.5084   -4.3194   52.3060 H       1  ZINC001060620810    0.0900
     38 H38       -11.1726   -2.4585   54.7020 H       1  ZINC001060620810    0.0700
     39 H39       -11.3831   -4.2243   54.7806 H       1  ZINC001060620810    0.0800
     40 H40       -17.3789   -2.0655   56.3296 H       1  ZINC001060620810    0.1000
     41 H41       -17.5683   -2.7452   58.0340 H       1  ZINC001060620810    0.1100
     42 H42       -16.4440   -1.2681   59.6159 H       1  ZINC001060620810    0.0700
     43 H43       -14.8882   -0.4648   59.3030 H       1  ZINC001060620810    0.0700
     44 H44       -14.7065   -2.3893   60.9140 H       1  ZINC001060620810    0.0700
     45 H45       -13.7055   -2.6014   59.4536 H       1  ZINC001060620810    0.0700
     46 H46       -16.5410   -3.6954   59.6486 H       1  ZINC001060620810    0.0700
     47 H47       -15.1215   -4.6381   60.1744 H       1  ZINC001060620810    0.0700
     48 H48       -15.7751   -5.0990   57.7940 H       1  ZINC001060620810    0.0700
     49 H49       -14.1244   -4.4586   57.9528 H       1  ZINC001060620810    0.0700
@<TRIPOS>BOND
     1     1     2    2
     2     2     3   am
     3     2    18    1
     4     3     4    1
     5     3    26    1
     6     4    17    1
     7     4     5    1
     8     4    27    1
     9     5     6    1
    10     5    28    1
    11     5    29    1
    12     6     7    1
    13     6    30    1
    14     6    31    1
    15     7     8    1
    16     7    16    1
    17     7    32    1
    18     8     9    1
    19     8    33    1
    20     9    15   ar
    21     9    10   ar
    22    10    11   ar
    23    11    12   ar
    24    11    34    1
    25    12    13    1
    26    12    14   ar
    27    14    15   ar
    28    14    35    1
    29    16    17    1
    30    16    36    1
    31    16    37    1
    32    17    38    1
    33    17    39    1
    34    18    20    1
    35    18    25    1
    36    18    19    1
    37    19    20    1
    38    19    40    1
    39    19    41    1
    40    20    21    1
    41    20    22    1
    42    22    23    1
    43    22    42    1
    44    22    43    1
    45    23    24    1
    46    23    44    1
    47    23    45    1
    48    24    25    1
    49    24    46    1
    50    24    47    1
    51    25    48    1
    52    25    49    1
@<TRIPOS>SUBSTRUCTURE
     1 ZINC001060620810        1 TEMP              0 ****  ****    0 ROOT


##########                                Name:    ZINC000437443367
##########                DOCK_Rotatable_Bonds:                   8
##########                         Heavy_Atoms:                  24
##########                    Molecular_Weight:             334.434
##########                DOCK_Rotatable_Bonds:                   8
##########                       Formal_Charge:          -0.0500003
##########                     HBond_Acceptors:                   5
##########                        HBond_Donors:                   1
##########                         Heavy_Atoms:                  24
##########                          Grid_Score:          -31.266270
##########                     Grid_vdw_energy:          -30.716722
##########                      Grid_es_energy:           -0.549547
##########           Internal_energy_repulsive:           32.411583

@<TRIPOS>MOLECULE
ZINC000437443367
 51 52 1 0 0
SMALL
USER_CHARGES


@<TRIPOS>ATOM
      1 C1        -11.3483    2.1117   62.1865 C.3     1  ZINC000437443367   -0.1200
      2 C2        -10.5538    0.8374   62.3129 C.ar    1  ZINC000437443367   -0.1000
      3 C3        -10.5556   -0.0817   61.2827 C.ar    1  ZINC000437443367   -0.1200
      4 C4         -9.8229   -1.2564   61.3998 C.ar    1  ZINC000437443367    0.1400
      5 N5         -9.8229   -2.1884   60.3577 N.am    1  ZINC000437443367   -0.6400
      6 C6        -10.9639   -2.8207   60.0191 C.2     1  ZINC000437443367    0.5000
      7 O7        -11.9916   -2.5810   60.6187 O.2     1  ZINC000437443367   -0.4800
      8 C8        -10.9637   -3.8163   58.9058 C.2     1  ZINC000437443367    0.5100
      9 O9        -10.3386   -4.8505   59.0167 O.2     1  ZINC000437443367   -0.5200
     10 N10       -11.6579   -3.5660   57.7779 N.am    1  ZINC000437443367   -0.5700
     11 C11       -12.4126   -2.3175   57.6440 C.3     1  ZINC000437443367    0.0900
     12 C12       -11.4389   -1.1462   57.4981 C.3     1  ZINC000437443367   -0.1200
     13 C13       -12.2272    0.1555   57.3402 C.3     1  ZINC000437443367   -0.0900
     14 C14       -11.2538    1.3303   57.2245 C.3     1  ZINC000437443367   -0.1400
     15 C15       -13.0882    0.0803   56.0777 C.3     1  ZINC000437443367   -0.1500
     16 C16       -11.6577   -4.5426   56.6859 C.3     1  ZINC000437443367    0.1300
     17 C17       -12.9655   -5.3607   56.7085 C.3     1  ZINC000437443367   -0.1300
     18 C18       -13.8858   -4.6338   55.6967 C.3     1  ZINC000437443367   -0.1300
     19 C19       -12.9008   -4.2193   54.5755 C.3     1  ZINC000437443367   -0.1200
     20 C20       -11.6167   -3.8168   55.3297 C.3     1  ZINC000437443367   -0.1400
     21 C21        -9.0901   -1.5032   62.5536 C.ar    1  ZINC000437443367   -0.1100
     22 C22        -9.0913   -0.5809   63.5817 C.ar    1  ZINC000437443367   -0.1300
     23 C23        -9.8178    0.5918   63.4604 C.ar    1  ZINC000437443367    0.0800
     24 F24        -9.8175    1.4926   64.4672 F       1  ZINC000437443367   -0.1400
     25 H25       -10.7266    2.8841   61.7339 H       1  ZINC000437443367    0.0800
     26 H26       -12.2218    1.9345   61.5591 H       1  ZINC000437443367    0.0700
     27 H27       -11.6711    2.4382   63.1750 H       1  ZINC000437443367    0.0700
     28 H28       -11.1263    0.1120   60.3866 H       1  ZINC000437443367    0.1400
     29 H29        -9.0016   -2.3798   59.8783 H       1  ZINC000437443367    0.4200
     30 H30       -13.0507   -2.3715   56.7621 H       1  ZINC000437443367    0.0900
     31 H31       -13.0294   -2.1689   58.5304 H       1  ZINC000437443367    0.1000
     32 H32       -10.8094   -1.0844   58.3857 H       1  ZINC000437443367    0.0700
     33 H33       -10.8134   -1.3012   56.6190 H       1  ZINC000437443367    0.0600
     34 H34       -12.8687    0.2995   58.2096 H       1  ZINC000437443367    0.0600
     35 H35       -10.6123    1.1862   56.3552 H       1  ZINC000437443367    0.0600
     36 H36       -11.8154    2.2577   57.1120 H       1  ZINC000437443367    0.0400
     37 H37       -10.6404    1.3838   58.1240 H       1  ZINC000437443367    0.0600
     38 H38       -13.7816   -0.7566   56.1601 H       1  ZINC000437443367    0.0500
     39 H39       -13.6498    1.0077   55.9652 H       1  ZINC000437443367    0.0500
     40 H40       -12.4467   -0.0636   55.2084 H       1  ZINC000437443367    0.0500
     41 H41       -10.7990   -5.2073   56.7799 H       1  ZINC000437443367    0.1000
     42 H42       -12.7799   -6.3856   56.3873 H       1  ZINC000437443367    0.0800
     43 H43       -13.4073   -5.3462   57.7048 H       1  ZINC000437443367    0.0700
     44 H44       -14.6471   -5.3117   55.3108 H       1  ZINC000437443367    0.0700
     45 H45       -14.3438   -3.7561   56.1526 H       1  ZINC000437443367    0.0700
     46 H46       -12.7047   -5.0598   53.9098 H       1  ZINC000437443367    0.0700
     47 H47       -13.2956   -3.3717   54.0151 H       1  ZINC000437443367    0.0700
     48 H48       -11.5968   -2.7380   55.4840 H       1  ZINC000437443367    0.0800
     49 H49       -10.7384   -4.1299   54.7651 H       1  ZINC000437443367    0.0700
     50 H50        -8.5202   -2.4157   62.6470 H       1  ZINC000437443367    0.1600
     51 H51        -8.5216   -0.7723   64.4790 H       1  ZINC000437443367    0.1400
@<TRIPOS>BOND
     1     1     2    1
     2     1    25    1
     3     1    26    1
     4     1    27    1
     5     2    23   ar
     6     2     3   ar
     7     3     4   ar
     8     3    28    1
     9     4     5    1
    10     4    21   ar
    11     5     6   am
    12     5    29    1
    13     6     7    2
    14     6     8    1
    15     8     9    2
    16     8    10   am
    17    10    11    1
    18    10    16    1
    19    11    12    1
    20    11    30    1
    21    11    31    1
    22    12    13    1
    23    12    32    1
    24    12    33    1
    25    13    14    1
    26    13    15    1
    27    13    34    1
    28    14    35    1
    29    14    36    1
    30    14    37    1
    31    15    38    1
    32    15    39    1
    33    15    40    1
    34    16    20    1
    35    16    17    1
    36    16    41    1
    37    17    18    1
    38    17    42    1
    39    17    43    1
    40    18    19    1
    41    18    44    1
    42    18    45    1
    43    19    20    1
    44    19    46    1
    45    19    47    1
    46    20    48    1
    47    20    49    1
    48    21    22   ar
    49    21    50    1
    50    22    23   ar
    51    22    51    1
    52    23    24    1
@<TRIPOS>SUBSTRUCTURE
     1 ZINC000437443367        1 TEMP              0 ****  ****    0 ROOT


##########                                Name:    ZINC000281092425
##########                DOCK_Rotatable_Bonds:                   8
##########                         Heavy_Atoms:                  23
##########                    Molecular_Weight:             332.304
##########                DOCK_Rotatable_Bonds:                   8
##########                       Formal_Charge:         2.98023e-08
##########                     HBond_Acceptors:                   9
##########                        HBond_Donors:                   2
##########                         Heavy_Atoms:                  23
##########                          Grid_Score:          -31.253754
##########                     Grid_vdw_energy:          -27.242395
##########                      Grid_es_energy:           -4.011357
##########           Internal_energy_repulsive:           16.741438

@<TRIPOS>MOLECULE
ZINC000281092425
 41 42 1 0 0
SMALL
USER_CHARGES


@<TRIPOS>ATOM
      1 O1         -9.7417   -4.7028   59.2664 O.2     1  ZINC000281092425   -0.1800
      2 N2        -10.2118   -3.6575   58.8540 N.pl3   1  ZINC000281092425    0.0400
      3 O3        -10.6623   -3.5962   57.7241 O.2     1  ZINC000281092425   -0.1500
      4 C4        -10.2411   -2.4635   59.7282 C.ar    1  ZINC000281092425   -0.1200
      5 C5         -9.7298   -2.5341   61.0099 C.ar    1  ZINC000281092425    0.0200
      6 C6         -9.7553   -1.4219   61.8290 C.ar    1  ZINC000281092425   -0.2200
      7 C7        -10.2952   -0.2288   61.3649 C.ar    1  ZINC000281092425    0.3000
      8 N8        -10.3208    0.8960   62.1925 N.pl3   1  ZINC000281092425   -0.7200
      9 C9        -11.0208    0.8434   63.4784 C.3     1  ZINC000281092425    0.1200
     10 C10       -10.5112    1.9673   64.3829 C.3     1  ZINC000281092425   -0.0900
     11 H11        -9.8994    2.6546   63.7986 H       1  ZINC000281092425    0.0900
     12 C12       -11.7014    2.7230   64.9771 C.3     1  ZINC000281092425    0.0800
     13 O13       -12.7304    1.7940   65.3240 O.3     1  ZINC000281092425   -0.5700
     14 C14        -9.6701    1.3707   65.5131 C.3     1  ZINC000281092425   -0.1100
     15 H15       -10.2873    0.7622   66.1741 H       1  ZINC000281092425    0.0900
     16 C16        -8.4869    0.5417   64.9433 C.3     1  ZINC000281092425   -0.1600
     17 C17        -7.4548    0.6745   66.0913 C.3     1  ZINC000281092425    0.0500
     18 O18        -7.6215    2.0102   66.5928 O.3     1  ZINC000281092425   -0.3900
     19 C19        -8.9470    2.4813   66.3049 C.3     1  ZINC000281092425    0.0700
     20 C20       -10.8090   -0.1561   60.0772 C.ar    1  ZINC000281092425   -0.2800
     21 C21       -10.7771   -1.2728   59.2573 C.ar    1  ZINC000281092425    0.2300
     22 O22       -11.2787   -1.2048   57.9961 O.3     1  ZINC000281092425   -0.2900
     23 C23       -10.7508   -0.1882   57.1418 C.3     1  ZINC000281092425    0.4100
     24 F24        -9.4013   -0.4511   56.8829 F       1  ZINC000281092425   -0.1900
     25 F25       -11.4627   -0.1748   55.9376 F       1  ZINC000281092425   -0.1900
     26 H26        -9.3097   -3.4608   61.3722 H       1  ZINC000281092425    0.1600
     27 H27        -9.3556   -1.4798   62.8306 H       1  ZINC000281092425    0.1500
     28 H28        -9.8752    1.7119   61.9160 H       1  ZINC000281092425    0.4100
     29 H29       -12.0914    0.9660   63.3146 H       1  ZINC000281092425    0.0800
     30 H30       -10.8341   -0.1191   63.9547 H       1  ZINC000281092425    0.0800
     31 H31       -11.3815    3.2608   65.8696 H       1  ZINC000281092425    0.0500
     32 H32       -12.0845    3.4323   64.2434 H       1  ZINC000281092425    0.0500
     33 H33       -12.4503    1.1128   65.9505 H       1  ZINC000281092425    0.3800
     34 H34        -8.7736   -0.4989   64.7912 H       1  ZINC000281092425    0.0800
     35 H35        -8.1073    0.9815   64.0209 H       1  ZINC000281092425    0.0800
     36 H36        -7.6653   -0.0529   66.8753 H       1  ZINC000281092425    0.0600
     37 H37        -6.4435    0.5375   65.7085 H       1  ZINC000281092425    0.0900
     38 H38        -8.8944    3.3877   65.7016 H       1  ZINC000281092425    0.0800
     39 H39        -9.4771    2.6853   67.2352 H       1  ZINC000281092425    0.0700
     40 H40       -11.2293    0.7701   59.7139 H       1  ZINC000281092425    0.1500
     41 H41       -10.8447    0.7818   57.6302 H       1  ZINC000281092425    0.1900
@<TRIPOS>BOND
     1     1     2    2
     2     2     3    2
     3     2     4    1
     4     4    21   ar
     5     4     5   ar
     6     5     6   ar
     7     5    26    1
     8     6     7   ar
     9     6    27    1
    10     7     8    1
    11     7    20   ar
    12     8     9    1
    13     8    28    1
    14     9    10    1
    15     9    29    1
    16     9    30    1
    17    10    11    1
    18    10    12    1
    19    10    14    1
    20    12    13    1
    21    12    31    1
    22    12    32    1
    23    13    33    1
    24    14    15    1
    25    14    19    1
    26    14    16    1
    27    16    17    1
    28    16    34    1
    29    16    35    1
    30    17    18    1
    31    17    36    1
    32    17    37    1
    33    18    19    1
    34    19    38    1
    35    19    39    1
    36    20    21   ar
    37    20    40    1
    38    21    22    1
    39    22    23    1
    40    23    24    1
    41    23    25    1
    42    23    41    1
@<TRIPOS>SUBSTRUCTURE
     1 ZINC000281092425        1 TEMP              0 ****  ****    0 ROOT


##########                                Name:    ZINC000481050680
##########                DOCK_Rotatable_Bonds:                   7
##########                         Heavy_Atoms:                  29
##########                    Molecular_Weight:              412.46
##########                DOCK_Rotatable_Bonds:                   7
##########                       Formal_Charge:          -0.0199997
##########                     HBond_Acceptors:                   7
##########                        HBond_Donors:                   1
##########                         Heavy_Atoms:                  29
##########                          Grid_Score:          -31.245905
##########                     Grid_vdw_energy:          -31.317356
##########                      Grid_es_energy:            0.071451
##########           Internal_energy_repulsive:           14.164834

@<TRIPOS>MOLECULE
ZINC000481050680
 47 49 1 0 0
SMALL
USER_CHARGES


@<TRIPOS>ATOM
      1 N1         -8.0985    1.2372   64.9697 N.1     1  ZINC000481050680   -0.3900
      2 C2         -8.7112    0.7612   64.1400 C.1     1  ZINC000481050680    0.2500
      3 C3         -9.4837    0.1611   63.0941 C.ar    1  ZINC000481050680    0.0200
      4 C4         -9.3737   -1.2070   62.8381 C.ar    1  ZINC000481050680   -0.0800
      5 C5        -10.1207   -1.7801   61.8295 C.ar    1  ZINC000481050680   -0.0800
      6 C6        -10.9778   -1.0031   61.0716 C.ar    1  ZINC000481050680   -0.1000
      7 C7        -11.7903   -1.6366   59.9718 C.3     1  ZINC000481050680   -0.5900
      8 S8        -10.6781   -2.2685   58.6856 S.o2    1  ZINC000481050680    2.6000
      9 O9         -9.8411   -1.2300   58.1958 O.2     1  ZINC000481050680   -0.9300
     10 O10       -10.1381   -3.5263   59.0673 O.2     1  ZINC000481050680   -0.9400
     11 N11       -11.6770   -2.6223   57.4130 N.am    1  ZINC000481050680   -1.1100
     12 C12       -12.7510   -3.6053   57.5760 C.3     1  ZINC000481050680    0.2100
     13 H13       -12.6465   -4.1007   58.5412 H       1  ZINC000481050680    0.1000
     14 C14       -12.6645   -4.6453   56.4570 C.3     1  ZINC000481050680   -0.0800
     15 C15       -12.5408   -3.9447   55.1286 C.ar    1  ZINC000481050680   -0.0900
     16 C16       -13.6722   -3.4809   54.4839 C.ar    1  ZINC000481050680   -0.1200
     17 C17       -13.5589   -2.8382   53.2652 C.ar    1  ZINC000481050680   -0.1200
     18 C18       -12.3140   -2.6591   52.6915 C.ar    1  ZINC000481050680   -0.1200
     19 C19       -11.1825   -3.1223   53.3365 C.ar    1  ZINC000481050680   -0.1200
     20 C20       -11.2955   -3.7610   54.5572 C.ar    1  ZINC000481050680   -0.1200
     21 C21       -14.0849   -2.9074   57.5112 C.ar    1  ZINC000481050680   -0.1300
     22 C22       -14.1685   -1.6210   57.0138 C.ar    1  ZINC000481050680   -0.0700
     23 C23       -15.3924   -0.9804   56.9543 C.ar    1  ZINC000481050680   -0.1300
     24 C24       -16.5334   -1.6256   57.3926 C.ar    1  ZINC000481050680   -0.0900
     25 C25       -16.4522   -2.9122   57.8911 C.ar    1  ZINC000481050680   -0.1500
     26 C26       -15.2283   -3.5571   57.9450 C.ar    1  ZINC000481050680    0.1100
     27 F27       -15.1478   -4.8147   58.4319 F       1  ZINC000481050680   -0.1400
     28 C28       -11.0931    0.3556   61.3197 C.ar    1  ZINC000481050680    0.1200
     29 F29       -11.9329    1.1083   60.5757 F       1  ZINC000481050680   -0.1200
     30 C30       -10.3543    0.9406   62.3300 C.ar    1  ZINC000481050680   -0.1000
     31 H31        -8.7048   -1.8157   63.4284 H       1  ZINC000481050680    0.1500
     32 H32       -10.0356   -2.8383   61.6310 H       1  ZINC000481050680    0.1500
     33 H33       -12.3770   -2.4591   60.3811 H       1  ZINC000481050680    0.1500
     34 H34       -12.4596   -0.8926   59.5400 H       1  ZINC000481050680    0.1500
     35 H35       -11.5510   -2.1785   56.5596 H       1  ZINC000481050680    0.4200
     36 H36       -11.7918   -5.2786   56.6164 H       1  ZINC000481050680    0.0900
     37 H37       -13.5649   -5.2595   56.4615 H       1  ZINC000481050680    0.0900
     38 H38       -14.6448   -3.6208   54.9321 H       1  ZINC000481050680    0.1200
     39 H39       -14.4429   -2.4764   52.7612 H       1  ZINC000481050680    0.1200
     40 H40       -12.2255   -2.1577   51.7390 H       1  ZINC000481050680    0.1200
     41 H41       -10.2100   -2.9827   52.8881 H       1  ZINC000481050680    0.1200
     42 H42       -10.4115   -4.1229   55.0612 H       1  ZINC000481050680    0.1200
     43 H43       -13.2775   -1.1156   56.6716 H       1  ZINC000481050680    0.1300
     44 H44       -15.4567    0.0251   56.5653 H       1  ZINC000481050680    0.1300
     45 H45       -17.4889   -1.1241   57.3460 H       1  ZINC000481050680    0.1300
     46 H46       -17.3439   -3.4159   58.2341 H       1  ZINC000481050680    0.1400
     47 H47       -10.4444    1.9993   62.5234 H       1  ZINC000481050680    0.1600
@<TRIPOS>BOND
     1     1     2    3
     2     2     3    1
     3     3    30   ar
     4     3     4   ar
     5     4     5   ar
     6     4    31    1
     7     5     6   ar
     8     5    32    1
     9     6     7    1
    10     6    28   ar
    11     7     8    1
    12     7    33    1
    13     7    34    1
    14     8     9    2
    15     8    10    2
    16     8    11   am
    17    11    12    1
    18    11    35    1
    19    12    13    1
    20    12    14    1
    21    12    21    1
    22    14    15    1
    23    14    36    1
    24    14    37    1
    25    15    20   ar
    26    15    16   ar
    27    16    17   ar
    28    16    38    1
    29    17    18   ar
    30    17    39    1
    31    18    19   ar
    32    18    40    1
    33    19    20   ar
    34    19    41    1
    35    20    42    1
    36    21    26   ar
    37    21    22   ar
    38    22    23   ar
    39    22    43    1
    40    23    24   ar
    41    23    44    1
    42    24    25   ar
    43    24    45    1
    44    25    26   ar
    45    25    46    1
    46    26    27    1
    47    28    29    1
    48    28    30   ar
    49    30    47    1
@<TRIPOS>SUBSTRUCTURE
     1 ZINC000481050680        1 TEMP              0 ****  ****    0 ROOT


##########                                Name:    ZINC000435292384
##########                DOCK_Rotatable_Bonds:                   6
##########                         Heavy_Atoms:                  22
##########                    Molecular_Weight:             326.503
##########                DOCK_Rotatable_Bonds:                   6
##########                       Formal_Charge:         -0.00999993
##########                     HBond_Acceptors:                   5
##########                        HBond_Donors:                   0
##########                         Heavy_Atoms:                  22
##########                          Grid_Score:          -31.243113
##########                     Grid_vdw_energy:          -31.155787
##########                      Grid_es_energy:           -0.087327
##########           Internal_energy_repulsive:           22.629908

@<TRIPOS>MOLECULE
ZINC000435292384
 52 53 1 0 0
SMALL
USER_CHARGES


@<TRIPOS>ATOM
      1 C1        -10.2208    0.8708   63.4329 C.3     1  ZINC000435292384   -0.1500
      2 C2        -10.4061   -0.5105   62.8017 C.3     1  ZINC000435292384   -0.1200
      3 C3        -10.7162   -0.3529   61.3117 C.3     1  ZINC000435292384   -0.1400
      4 C4        -11.0158   -1.7253   60.7052 C.3     1  ZINC000435292384    0.1600
      5 H5        -11.6818   -2.2779   61.3680 H       1  ZINC000435292384    0.0900
      6 C6         -9.7093   -2.5023   60.5315 C.3     1  ZINC000435292384   -0.1700
      7 N7        -11.6585   -1.5526   59.4000 N.am    1  ZINC000435292384   -0.6100
      8 C8        -11.0619   -1.9610   58.1228 C.3     1  ZINC000435292384    0.1200
      9 C9        -12.2313   -1.9942   57.1138 C.3     1  ZINC000435292384   -0.1300
     10 H10       -12.6681   -2.9911   57.0557 H       1  ZINC000435292384    0.1100
     11 C11       -11.7834   -1.5246   55.7537 C.2     1  ZINC000435292384    0.5200
     12 O12       -10.7846   -0.8453   55.6452 O.2     1  ZINC000435292384   -0.5200
     13 N13       -12.4930   -1.8594   54.6578 N.am    1  ZINC000435292384   -0.6000
     14 C14       -12.0272   -1.3832   53.3406 C.3     1  ZINC000435292384    0.1000
     15 C15       -12.1328   -2.4736   52.2590 C.3     1  ZINC000435292384   -0.1300
     16 C16       -11.7107   -3.8073   52.8244 C.3     1  ZINC000435292384   -0.1100
     17 C17       -12.9355   -4.5363   53.3682 C.3     1  ZINC000435292384   -0.1200
     18 C18       -13.2970   -4.1694   54.7460 C.3     1  ZINC000435292384   -0.0700
     19 H19       -12.4490   -4.3591   55.4042 H       1  ZINC000435292384    0.0900
     20 S20       -14.7100   -5.1720   55.2834 S.3     1  ZINC000435292384   -0.2500
     21 C21       -14.0005   -6.2090   56.5917 C.3     1  ZINC000435292384   -0.1200
     22 C22       -13.6756   -2.6749   54.8204 C.3     1  ZINC000435292384    0.1400
     23 C23       -13.2232   -0.9915   57.7475 C.3     1  ZINC000435292384   -0.1400
     24 C24       -12.8727   -1.0051   59.2191 C.2     1  ZINC000435292384    0.5200
     25 O25       -13.5810   -0.5776   60.1058 O.2     1  ZINC000435292384   -0.5200
     26 H26        -9.9999    0.7586   64.4944 H       1  ZINC000435292384    0.0500
     27 H27        -9.3952    1.3866   62.9426 H       1  ZINC000435292384    0.0500
     28 H28       -11.1353    1.4514   63.3116 H       1  ZINC000435292384    0.0500
     29 H29        -9.4917   -1.0912   62.9231 H       1  ZINC000435292384    0.0600
     30 H30       -11.2318   -1.0263   63.2921 H       1  ZINC000435292384    0.0600
     31 H31       -11.5831    0.2961   61.1876 H       1  ZINC000435292384    0.0800
     32 H32        -9.8570    0.0879   60.8064 H       1  ZINC000435292384    0.0800
     33 H33        -9.0433   -1.9496   59.8688 H       1  ZINC000435292384    0.0700
     34 H34        -9.2310   -2.6307   61.5026 H       1  ZINC000435292384    0.0700
     35 H35        -9.9226   -3.4799   60.0994 H       1  ZINC000435292384    0.0600
     36 H36       -10.3122   -1.2352   57.8076 H       1  ZINC000435292384    0.0900
     37 H37       -10.6147   -2.9507   58.2147 H       1  ZINC000435292384    0.0800
     38 H38       -12.6310   -0.5269   53.0400 H       1  ZINC000435292384    0.0700
     39 H39       -10.9871   -1.0685   53.4255 H       1  ZINC000435292384    0.0900
     40 H40       -13.1636   -2.5386   51.9105 H       1  ZINC000435292384    0.0700
     41 H41       -11.4855   -2.2151   51.4208 H       1  ZINC000435292384    0.0800
     42 H42       -11.2501   -4.4061   52.0386 H       1  ZINC000435292384    0.0700
     43 H43       -10.9935   -3.6502   53.6300 H       1  ZINC000435292384    0.0600
     44 H44       -13.7838   -4.3200   52.7187 H       1  ZINC000435292384    0.0800
     45 H45       -12.7432   -5.6087   53.3348 H       1  ZINC000435292384    0.0600
     46 H46       -13.1919   -6.8121   56.1789 H       1  ZINC000435292384    0.0800
     47 H47       -13.6107   -5.5741   57.3874 H       1  ZINC000435292384    0.0800
     48 H48       -14.7729   -6.8640   56.9951 H       1  ZINC000435292384    0.1000
     49 H49       -14.1295   -2.4632   55.7885 H       1  ZINC000435292384    0.0900
     50 H50       -14.3863   -2.4407   54.0278 H       1  ZINC000435292384    0.0900
     51 H51       -13.0805    0.0039   57.3267 H       1  ZINC000435292384    0.1100
     52 H52       -14.2501   -1.3256   57.5997 H       1  ZINC000435292384    0.1100
@<TRIPOS>BOND
     1     1     2    1
     2     1    26    1
     3     1    27    1
     4     1    28    1
     5     2     3    1
     6     2    29    1
     7     2    30    1
     8     3     4    1
     9     3    31    1
    10     3    32    1
    11     4     5    1
    12     4     6    1
    13     4     7    1
    14     6    33    1
    15     6    34    1
    16     6    35    1
    17     7    24   am
    18     7     8    1
    19     8     9    1
    20     8    36    1
    21     8    37    1
    22     9    10    1
    23     9    11    1
    24     9    23    1
    25    11    12    2
    26    11    13   am
    27    13    22    1
    28    13    14    1
    29    14    15    1
    30    14    38    1
    31    14    39    1
    32    15    16    1
    33    15    40    1
    34    15    41    1
    35    16    17    1
    36    16    42    1
    37    16    43    1
    38    17    18    1
    39    17    44    1
    40    17    45    1
    41    18    19    1
    42    18    20    1
    43    18    22    1
    44    20    21    1
    45    21    46    1
    46    21    47    1
    47    21    48    1
    48    22    49    1
    49    22    50    1
    50    23    24    1
    51    23    51    1
    52    23    52    1
    53    24    25    2
@<TRIPOS>SUBSTRUCTURE
     1 ZINC000435292384        1 TEMP              0 ****  ****    0 ROOT


##########                                Name:    ZINC000441887161
##########                DOCK_Rotatable_Bonds:                   6
##########                         Heavy_Atoms:                  27
##########                    Molecular_Weight:             383.514
##########                DOCK_Rotatable_Bonds:                   6
##########                       Formal_Charge:          -0.0300002
##########                     HBond_Acceptors:                   6
##########                        HBond_Donors:                   1
##########                         Heavy_Atoms:                  27
##########                          Grid_Score:          -31.238327
##########                     Grid_vdw_energy:          -30.650927
##########                      Grid_es_energy:           -0.587401
##########           Internal_energy_repulsive:           18.802885

@<TRIPOS>MOLECULE
ZINC000441887161
 52 54 1 0 0
SMALL
USER_CHARGES


@<TRIPOS>ATOM
      1 C1         -9.0010   -0.3971   52.3256 C.3     1  ZINC000441887161   -0.1200
      2 C2        -10.1987   -0.8980   53.0909 C.ar    1  ZINC000441887161   -0.0700
      3 C3        -10.7372   -2.1368   52.7981 C.ar    1  ZINC000441887161   -0.1200
      4 C4        -11.8360   -2.5963   53.5002 C.ar    1  ZINC000441887161   -0.0900
      5 C5        -12.3957   -1.8172   54.4952 C.ar    1  ZINC000441887161   -0.1100
      6 C6        -13.5936   -2.3179   55.2602 C.3     1  ZINC000441887161    0.1900
      7 H7        -13.5445   -1.9586   56.2881 H       1  ZINC000441887161    0.1000
      8 C8        -14.8731   -1.8007   54.5997 C.3     1  ZINC000441887161    0.1000
      9 N9        -14.8401   -2.1042   53.1667 N.pl3   1  ZINC000441887161   -0.4600
     10 C10       -14.2553   -1.3453   52.1891 C.2     1  ZINC000441887161   -0.0500
     11 C11       -14.4579   -1.9883   51.0233 C.2     1  ZINC000441887161   -0.0200
     12 N12       -15.1476   -3.1091   51.2821 N.2     1  ZINC000441887161   -0.4900
     13 C13       -15.3757   -3.1877   52.5646 C.2     1  ZINC000441887161    0.1800
     14 N14       -13.5990   -3.7829   55.2548 N.am    1  ZINC000441887161   -1.1100
     15 S15       -13.7898   -4.6155   56.6735 S.o2    1  ZINC000441887161    2.6900
     16 O16       -14.9733   -4.1124   57.2779 O.2     1  ZINC000441887161   -0.9600
     17 O17       -13.5995   -5.9887   56.3615 O.2     1  ZINC000441887161   -0.9500
     18 C18       -12.4572   -4.1563   57.7309 C.ar    1  ZINC000441887161   -0.6800
     19 C19       -11.3068   -4.9217   57.7652 C.ar    1  ZINC000441887161   -0.0300
     20 C20       -10.2613   -4.5615   58.5949 C.ar    1  ZINC000441887161   -0.1300
     21 C21       -10.3661   -3.4356   59.3897 C.ar    1  ZINC000441887161   -0.0200
     22 C22        -9.2267   -3.0431   60.2945 C.3     1  ZINC000441887161   -0.1300
     23 C23       -11.5163   -2.6692   59.3544 C.ar    1  ZINC000441887161   -0.1000
     24 C24       -11.6305   -1.4413   60.2207 C.3     1  ZINC000441887161   -0.1200
     25 C25       -12.5600   -3.0272   58.5221 C.ar    1  ZINC000441887161   -0.0100
     26 C26       -11.8561   -0.5787   54.7891 C.ar    1  ZINC000441887161   -0.0700
     27 C27       -12.4660    0.2707   55.8742 C.3     1  ZINC000441887161   -0.1300
     28 C28       -10.7553   -0.1209   54.0897 C.ar    1  ZINC000441887161   -0.1200
     29 H29        -8.0885   -0.7150   52.8300 H       1  ZINC000441887161    0.0700
     30 H30        -9.0188   -0.8054   51.3152 H       1  ZINC000441887161    0.0700
     31 H31        -9.0295    0.6915   52.2782 H       1  ZINC000441887161    0.0700
     32 H32       -10.2999   -2.7456   52.0206 H       1  ZINC000441887161    0.1200
     33 H33       -12.2573   -3.5640   53.2708 H       1  ZINC000441887161    0.1200
     34 H34       -15.7377   -2.2848   55.0537 H       1  ZINC000441887161    0.1100
     35 H35       -14.9446   -0.7223   54.7410 H       1  ZINC000441887161    0.1000
     36 H36       -13.7322   -0.4104   52.3262 H       1  ZINC000441887161    0.1700
     37 H37       -14.1236   -1.6591   50.0505 H       1  ZINC000441887161    0.1600
     38 H38       -15.9101   -3.9841   53.0613 H       1  ZINC000441887161    0.2000
     39 H39       -13.4909   -4.2652   54.4201 H       1  ZINC000441887161    0.4200
     40 H40       -11.2249   -5.8014   57.1441 H       1  ZINC000441887161    0.1300
     41 H41        -9.3627   -5.1600   58.6222 H       1  ZINC000441887161    0.1300
     42 H42        -8.5494   -2.3785   59.7583 H       1  ZINC000441887161    0.0800
     43 H43        -9.6198   -2.5303   61.1723 H       1  ZINC000441887161    0.0800
     44 H44        -8.6867   -3.9369   60.6073 H       1  ZINC000441887161    0.0700
     45 H45       -11.2552   -0.5755   59.6751 H       1  ZINC000441887161    0.0800
     46 H46       -12.6753   -1.2792   60.4852 H       1  ZINC000441887161    0.0700
     47 H47       -11.0434   -1.5812   61.1284 H       1  ZINC000441887161    0.0700
     48 H48       -13.4585   -2.4285   58.4946 H       1  ZINC000441887161    0.1400
     49 H49       -11.9896    0.0399   56.8271 H       1  ZINC000441887161    0.0800
     50 H50       -12.3158    1.3243   55.6388 H       1  ZINC000441887161    0.0700
     51 H51       -13.5337    0.0622   55.9420 H       1  ZINC000441887161    0.0600
     52 H52       -10.3338    0.8467   54.3193 H       1  ZINC000441887161    0.1300
@<TRIPOS>BOND
     1     1     2    1
     2     1    29    1
     3     1    30    1
     4     1    31    1
     5     2    28   ar
     6     2     3   ar
     7     3     4   ar
     8     3    32    1
     9     4     5   ar
    10     4    33    1
    11     5     6    1
    12     5    26   ar
    13     6     7    1
    14     6     8    1
    15     6    14    1
    16     8     9    1
    17     8    34    1
    18     8    35    1
    19     9    13    1
    20     9    10    1
    21    10    11    2
    22    10    36    1
    23    11    12    1
    24    11    37    1
    25    12    13    2
    26    13    38    1
    27    14    15   am
    28    14    39    1
    29    15    16    2
    30    15    17    2
    31    15    18    1
    32    18    25   ar
    33    18    19   ar
    34    19    20   ar
    35    19    40    1
    36    20    21   ar
    37    20    41    1
    38    21    22    1
    39    21    23   ar
    40    22    42    1
    41    22    43    1
    42    22    44    1
    43    23    24    1
    44    23    25   ar
    45    24    45    1
    46    24    46    1
    47    24    47    1
    48    25    48    1
    49    26    27    1
    50    26    28   ar
    51    27    49    1
    52    27    50    1
    53    27    51    1
    54    28    52    1
@<TRIPOS>SUBSTRUCTURE
     1 ZINC000441887161        1 TEMP              0 ****  ****    0 ROOT


##########                                Name:    ZINC001220212140
##########                DOCK_Rotatable_Bonds:                   6
##########                         Heavy_Atoms:                  28
##########                    Molecular_Weight:             379.459
##########                DOCK_Rotatable_Bonds:                   6
##########                       Formal_Charge:         -0.00999925
##########                     HBond_Acceptors:                   6
##########                        HBond_Donors:                   1
##########                         Heavy_Atoms:                  28
##########                          Grid_Score:          -31.230261
##########                     Grid_vdw_energy:          -29.693087
##########                      Grid_es_energy:           -1.537174
##########           Internal_energy_repulsive:          173.092010

@<TRIPOS>MOLECULE
ZINC001220212140
 53 56 1 0 0
SMALL
USER_CHARGES


@<TRIPOS>ATOM
      1 C1        -13.4107   -4.5997   57.1030 C.3     1  ZINC001220212140   -0.1700
      2 C2        -12.1061   -3.9552   56.6302 C.3     1  ZINC001220212140    0.0800
      3 H3        -11.9875   -4.0725   55.5530 H       1  ZINC001220212140    0.1200
      4 C4        -12.0578   -2.4608   57.0272 C.3     1  ZINC001220212140   -0.1100
      5 C5        -11.3334   -2.5133   58.3586 C.ar    1  ZINC001220212140   -0.1500
      6 C6        -11.1984   -1.5923   59.3728 C.ar    1  ZINC001220212140   -0.0700
      7 C7        -10.4683   -1.9156   60.5100 C.ar    1  ZINC001220212140    0.1400
      8 N8        -10.3277   -0.9823   61.5461 N.am    1  ZINC001220212140   -0.6800
      9 C9        -11.4135   -0.5562   62.2213 C.2     1  ZINC001220212140    0.7200
     10 O10       -12.5151   -0.9817   61.9316 O.2     1  ZINC001220212140   -0.5700
     11 N11       -11.2783    0.3413   63.2176 N.am    1  ZINC001220212140   -0.6300
     12 C12       -12.3731    0.8886   64.0322 C.3     1  ZINC001220212140    0.0900
     13 C13       -11.7424    1.8522   65.0593 C.3     1  ZINC001220212140   -0.1100
     14 C14       -10.2719    1.3633   65.1373 C.3     1  ZINC001220212140   -0.1300
     15 H15       -10.1778    0.5145   65.8145 H       1  ZINC001220212140    0.1200
     16 C16        -9.3513    2.4834   65.5484 C.2     1  ZINC001220212140    0.5300
     17 O17        -9.7778    3.6148   65.6434 O.2     1  ZINC001220212140   -0.5100
     18 N18        -8.0543    2.2277   65.8105 N.am    1  ZINC001220212140   -0.5700
     19 C19        -7.5393    0.8610   65.6957 C.3     1  ZINC001220212140    0.0700
     20 C20        -7.1995    3.2677   66.1922 C.ar    1  ZINC001220212140    0.1400
     21 C21        -7.6877    4.5626   66.3081 C.ar    1  ZINC001220212140   -0.1100
     22 C22        -6.8414    5.5870   66.6850 C.ar    1  ZINC001220212140   -0.1100
     23 C23        -5.5092    5.3243   66.9466 C.ar    1  ZINC001220212140   -0.1200
     24 C24        -5.0200    4.0360   66.8317 C.ar    1  ZINC001220212140   -0.1100
     25 C25        -5.8625    3.0062   66.4616 C.ar    1  ZINC001220212140   -0.1200
     26 C26       -10.0076    0.9320   63.6754 C.3     1  ZINC001220212140    0.1400
     27 C27        -9.8795   -3.1683   60.6142 C.ar    1  ZINC001220212140   -0.1100
     28 C28       -10.0142   -4.0869   59.5944 C.ar    1  ZINC001220212140   -0.1200
     29 C29       -10.7417   -3.7668   58.4512 C.ar    1  ZINC001220212140    0.0900
     30 O30       -10.9803   -4.5115   57.3301 O.3     1  ZINC001220212140   -0.3000
     31 H31       -13.5036   -4.4821   58.1827 H       1  ZINC001220212140    0.0600
     32 H32       -14.2543   -4.1157   56.6110 H       1  ZINC001220212140    0.0800
     33 H33       -13.4037   -5.6604   56.8523 H       1  ZINC001220212140    0.0700
     34 H34       -11.4908   -1.8822   56.2979 H       1  ZINC001220212140    0.0900
     35 H35       -13.0630   -2.0567   57.1464 H       1  ZINC001220212140    0.0900
     36 H36       -11.6596   -0.6197   59.2847 H       1  ZINC001220212140    0.1400
     37 H37        -9.4489   -0.6429   61.7772 H       1  ZINC001220212140    0.4100
     38 H38       -13.0730    1.4308   63.3963 H       1  ZINC001220212140    0.0700
     39 H39       -12.8894    0.0804   64.5503 H       1  ZINC001220212140    0.0700
     40 H40       -11.7884    2.8809   64.7020 H       1  ZINC001220212140    0.1000
     41 H41       -12.2322    1.7573   66.0285 H       1  ZINC001220212140    0.0900
     42 H42        -7.1786    0.6927   64.6809 H       1  ZINC001220212140    0.0700
     43 H43        -6.7196    0.7212   66.4004 H       1  ZINC001220212140    0.0800
     44 H44        -8.3364    0.1523   65.9202 H       1  ZINC001220212140    0.0800
     45 H45        -8.7279    4.7685   66.1032 H       1  ZINC001220212140    0.1200
     46 H46        -7.2206    6.5942   66.7753 H       1  ZINC001220212140    0.1300
     47 H47        -4.8494    6.1271   67.2408 H       1  ZINC001220212140    0.1300
     48 H48        -3.9788    3.8343   67.0360 H       1  ZINC001220212140    0.1300
     49 H49        -5.4798    2.0003   66.3720 H       1  ZINC001220212140    0.1200
     50 H50        -9.2064    0.1940   63.6366 H       1  ZINC001220212140    0.0900
     51 H51        -9.7561    1.7986   63.0639 H       1  ZINC001220212140    0.0700
     52 H52        -9.3132   -3.4244   61.4974 H       1  ZINC001220212140    0.1300
     53 H53        -9.5530   -5.0595   59.6830 H       1  ZINC001220212140    0.1300
@<TRIPOS>BOND
     1     1     2    1
     2     1    31    1
     3     1    32    1
     4     1    33    1
     5     2     3    1
     6     2    30    1
     7     2     4    1
     8     4     5    1
     9     4    34    1
    10     4    35    1
    11     5    29   ar
    12     5     6   ar
    13     6     7   ar
    14     6    36    1
    15     7     8    1
    16     7    27   ar
    17     8     9   am
    18     8    37    1
    19     9    10    2
    20     9    11   am
    21    11    26    1
    22    11    12    1
    23    12    13    1
    24    12    38    1
    25    12    39    1
    26    13    14    1
    27    13    40    1
    28    13    41    1
    29    14    15    1
    30    14    16    1
    31    14    26    1
    32    16    17    2
    33    16    18   am
    34    18    19    1
    35    18    20    1
    36    19    42    1
    37    19    43    1
    38    19    44    1
    39    20    25   ar
    40    20    21   ar
    41    21    22   ar
    42    21    45    1
    43    22    23   ar
    44    22    46    1
    45    23    24   ar
    46    23    47    1
    47    24    25   ar
    48    24    48    1
    49    25    49    1
    50    26    50    1
    51    26    51    1
    52    27    28   ar
    53    27    52    1
    54    28    29   ar
    55    28    53    1
    56    29    30    1
@<TRIPOS>SUBSTRUCTURE
     1 ZINC001220212140        1 TEMP              0 ****  ****    0 ROOT


##########                                Name:    ZINC000558213406
##########                DOCK_Rotatable_Bonds:                   8
##########                         Heavy_Atoms:                  30
##########                    Molecular_Weight:               408.5
##########                DOCK_Rotatable_Bonds:                   8
##########                       Formal_Charge:          -0.0299987
##########                     HBond_Acceptors:                   7
##########                        HBond_Donors:                   2
##########                         Heavy_Atoms:                  30
##########                          Grid_Score:          -31.222012
##########                     Grid_vdw_energy:          -31.019550
##########                      Grid_es_energy:           -0.202461
##########           Internal_energy_repulsive:           13.520177

@<TRIPOS>MOLECULE
ZINC000558213406
 58 61 1 0 0
SMALL
USER_CHARGES


@<TRIPOS>ATOM
      1 O1        -12.8867   -1.8490   56.4775 O.2     1  ZINC000558213406   -0.5700
      2 C2        -12.3419   -2.9218   56.3019 C.2     1  ZINC000558213406    0.7100
      3 N3        -12.2690   -3.8136   57.3097 N.am    1  ZINC000558213406   -0.6800
      4 C4        -12.8159   -3.5022   58.5618 C.ar    1  ZINC000558213406    0.1700
      5 C5        -12.0222   -2.9194   59.5408 C.ar    1  ZINC000558213406   -0.1300
      6 C6        -12.5618   -2.6123   60.7742 C.ar    1  ZINC000558213406   -0.1100
      7 C7        -13.8966   -2.8864   61.0355 C.ar    1  ZINC000558213406    0.0600
      8 O8        -14.4272   -2.5842   62.2502 O.3     1  ZINC000558213406   -0.2500
      9 C9        -14.9557   -1.3445   62.4250 C.ar    1  ZINC000558213406    0.0700
     10 C10       -14.4904   -0.2672   61.6775 C.ar    1  ZINC000558213406   -0.1500
     11 C11       -15.0604    0.9776   61.8912 C.ar    1  ZINC000558213406   -0.1300
     12 C12       -16.0644    1.1076   62.8322 C.ar    1  ZINC000558213406    0.0600
     13 N13       -16.4825    0.0660   63.5247 N.ar    1  ZINC000558213406   -0.4500
     14 C14       -15.9712   -1.1359   63.3476 C.ar    1  ZINC000558213406    0.0800
     15 C15       -14.6901   -3.4682   60.0574 C.ar    1  ZINC000558213406   -0.1000
     16 C16       -14.1530   -3.7710   58.8219 C.ar    1  ZINC000558213406   -0.1100
     17 N17       -11.8159   -3.2213   55.0977 N.am    1  ZINC000558213406   -0.7300
     18 C18       -11.8951   -2.2519   54.0021 C.3     1  ZINC000558213406    0.1500
     19 H19       -11.3939   -1.3229   54.2740 H       1  ZINC000558213406    0.1100
     20 C20       -11.2890   -2.8424   52.7017 C.3     1  ZINC000558213406   -0.1400
     21 C21       -12.0474   -2.0420   51.6136 C.3     1  ZINC000558213406    0.1000
     22 N22       -13.4135   -1.8839   52.1448 N.am    1  ZINC000558213406   -0.6200
     23 C23       -14.5235   -1.6777   51.4088 C.2     1  ZINC000558213406    0.5400
     24 O24       -15.6003   -1.5617   51.9547 O.2     1  ZINC000558213406   -0.5300
     25 C25       -14.4268   -1.5913   49.9073 C.3     1  ZINC000558213406   -0.1000
     26 C26       -15.6358   -2.2858   49.2776 C.3     1  ZINC000558213406   -0.1100
     27 C27       -15.5375   -2.1980   47.7532 C.3     1  ZINC000558213406   -0.1200
     28 C28       -15.5143   -0.7287   47.3274 C.3     1  ZINC000558213406   -0.1200
     29 C29       -14.3052   -0.0343   47.9572 C.3     1  ZINC000558213406   -0.1200
     30 C30       -14.4035   -0.1220   49.4816 C.3     1  ZINC000558213406   -0.1100
     31 C31       -13.3648   -1.9859   53.6137 C.3     1  ZINC000558213406    0.1000
     32 H32       -11.8380   -4.6710   57.1684 H       1  ZINC000558213406    0.4100
     33 H33       -10.9831   -2.7067   59.3377 H       1  ZINC000558213406    0.1300
     34 H34       -11.9445   -2.1590   61.5357 H       1  ZINC000558213406    0.1400
     35 H35       -13.7041   -0.3980   60.9488 H       1  ZINC000558213406    0.1400
     36 H36       -14.7238    1.8363   61.3292 H       1  ZINC000558213406    0.1400
     37 H37       -16.5123    2.0754   63.0030 H       1  ZINC000558213406    0.1600
     38 H38       -16.3397   -1.9651   63.9333 H       1  ZINC000558213406    0.1700
     39 H39       -15.7292   -3.6813   60.2614 H       1  ZINC000558213406    0.1400
     40 H40       -14.7709   -4.2236   58.0606 H       1  ZINC000558213406    0.1500
     41 H41       -11.3849   -4.0787   54.9564 H       1  ZINC000558213406    0.4000
     42 H42       -10.2168   -2.6535   52.6495 H       1  ZINC000558213406    0.0900
     43 H43       -11.5006   -3.9086   52.6211 H       1  ZINC000558213406    0.0800
     44 H44       -11.5825   -1.0672   51.4666 H       1  ZINC000558213406    0.0700
     45 H45       -12.0666   -2.5992   50.6771 H       1  ZINC000558213406    0.0800
     46 H46       -13.5118   -2.0809   49.5735 H       1  ZINC000558213406    0.0900
     47 H47       -15.6524   -3.3327   49.5809 H       1  ZINC000558213406    0.0600
     48 H48       -16.5507   -1.7963   49.6115 H       1  ZINC000558213406    0.0700
     49 H49       -14.6227   -2.6877   47.4194 H       1  ZINC000558213406    0.0600
     50 H50       -16.3989   -2.6928   47.3046 H       1  ZINC000558213406    0.0700
     51 H51       -15.4443   -0.6663   46.2415 H       1  ZINC000558213406    0.0600
     52 H52       -16.4292   -0.2392   47.6613 H       1  ZINC000558213406    0.0600
     53 H53       -13.3903   -0.5238   47.6233 H       1  ZINC000558213406    0.0600
     54 H54       -14.2887    1.0125   47.6538 H       1  ZINC000558213406    0.0700
     55 H55       -15.3183    0.3676   49.8154 H       1  ZINC000558213406    0.0800
     56 H56       -13.5421    0.3727   49.9302 H       1  ZINC000558213406    0.0600
     57 H57       -13.9900   -2.8134   53.9488 H       1  ZINC000558213406    0.0800
     58 H58       -13.7088   -1.0536   54.0616 H       1  ZINC000558213406    0.0800
@<TRIPOS>BOND
     1     1     2    2
     2     2     3   am
     3     2    17   am
     4     3     4    1
     5     3    32    1
     6     4    16   ar
     7     4     5   ar
     8     5     6   ar
     9     5    33    1
    10     6     7   ar
    11     6    34    1
    12     7     8    1
    13     7    15   ar
    14     8     9    1
    15     9    14   ar
    16     9    10   ar
    17    10    11   ar
    18    10    35    1
    19    11    12   ar
    20    11    36    1
    21    12    13   ar
    22    12    37    1
    23    13    14   ar
    24    14    38    1
    25    15    16   ar
    26    15    39    1
    27    16    40    1
    28    17    18    1
    29    17    41    1
    30    18    19    1
    31    18    31    1
    32    18    20    1
    33    20    21    1
    34    20    42    1
    35    20    43    1
    36    21    22    1
    37    21    44    1
    38    21    45    1
    39    22    23   am
    40    22    31    1
    41    23    24    2
    42    23    25    1
    43    25    30    1
    44    25    26    1
    45    25    46    1
    46    26    27    1
    47    26    47    1
    48    26    48    1
    49    27    28    1
    50    27    49    1
    51    27    50    1
    52    28    29    1
    53    28    51    1
    54    28    52    1
    55    29    30    1
    56    29    53    1
    57    29    54    1
    58    30    55    1
    59    30    56    1
    60    31    57    1
    61    31    58    1
@<TRIPOS>SUBSTRUCTURE
     1 ZINC000558213406        1 TEMP              0 ****  ****    0 ROOT


##########                                Name:    ZINC000469435497
##########                DOCK_Rotatable_Bonds:                   6
##########                         Heavy_Atoms:                  27
##########                    Molecular_Weight:             364.444
##########                DOCK_Rotatable_Bonds:                   6
##########                       Formal_Charge:           0.0300001
##########                     HBond_Acceptors:                   5
##########                        HBond_Donors:                   2
##########                         Heavy_Atoms:                  27
##########                          Grid_Score:          -31.209024
##########                     Grid_vdw_energy:          -29.722160
##########                      Grid_es_energy:           -1.486864
##########           Internal_energy_repulsive:            5.630456

@<TRIPOS>MOLECULE
ZINC000469435497
 51 54 1 0 0
SMALL
USER_CHARGES


@<TRIPOS>ATOM
      1 C1        -14.3332   -4.3379   58.0369 C.3     1  ZINC000469435497   -0.1600
      2 C2        -13.3553   -4.3246   56.8603 C.3     1  ZINC000469435497    0.1000
      3 C3        -13.8474   -5.2416   55.7389 C.3     1  ZINC000469435497   -0.1400
      4 C4        -13.1421   -2.8831   56.3411 C.3     1  ZINC000469435497   -0.1000
      5 C5        -11.9189   -2.4455   57.1235 C.ar    1  ZINC000469435497   -0.1500
      6 C6        -11.3641   -1.2066   57.3521 C.ar    1  ZINC000469435497   -0.0700
      7 C7        -10.2184   -1.0930   58.1303 C.ar    1  ZINC000469435497    0.1100
      8 N8         -9.6492    0.1653   58.3668 N.am    1  ZINC000469435497   -0.6600
      9 C9         -9.1399    0.8778   57.3423 C.2     1  ZINC000469435497    0.5100
     10 O10        -9.1743    0.4297   56.2157 O.2     1  ZINC000469435497   -0.5200
     11 C11        -8.5276    2.2311   57.5966 C.3     1  ZINC000469435497    0.1000
     12 N12        -7.5012    2.5003   56.5867 N.am    1  ZINC000469435497   -0.7200
     13 C13        -6.3534    3.1126   56.9390 C.2     1  ZINC000469435497    0.5700
     14 O14        -6.1705    3.4427   58.0944 O.2     1  ZINC000469435497   -0.5300
     15 C15        -5.3167    3.3826   55.9200 C.ar    1  ZINC000469435497   -0.1400
     16 C16        -4.1064    3.9710   56.2893 C.ar    1  ZINC000469435497   -0.0800
     17 C17        -3.1455    4.2191   55.3325 C.ar    1  ZINC000469435497   -0.1100
     18 C18        -3.3742    3.8878   54.0060 C.ar    1  ZINC000469435497   -0.0700
     19 C19        -2.4894    4.0582   52.7890 C.3     1  ZINC000469435497   -0.0900
     20 C20        -3.0908    3.1238   51.7180 C.3     1  ZINC000469435497   -0.1200
     21 C21        -4.5725    3.0432   52.1421 C.3     1  ZINC000469435497   -0.0800
     22 C22        -4.5727    3.3040   53.6335 C.ar    1  ZINC000469435497   -0.1100
     23 C23        -5.5405    3.0455   54.5852 C.ar    1  ZINC000469435497   -0.0400
     24 C24        -9.6413   -2.2334   58.6722 C.ar    1  ZINC000469435497   -0.1000
     25 C25       -10.1979   -3.4731   58.4376 C.ar    1  ZINC000469435497   -0.1200
     26 C26       -11.3441   -3.5927   57.6560 C.ar    1  ZINC000469435497    0.1000
     27 O27       -12.0373   -4.7067   57.2893 O.3     1  ZINC000469435497   -0.3000
     28 H28       -13.9804   -3.6555   58.8104 H       1  ZINC000469435497    0.0600
     29 H29       -15.3181   -4.0207   57.6944 H       1  ZINC000469435497    0.0800
     30 H30       -14.3978   -5.3468   58.4445 H       1  ZINC000469435497    0.0700
     31 H31       -14.8165   -4.8920   55.3826 H       1  ZINC000469435497    0.0800
     32 H32       -13.1314   -5.2273   54.9172 H       1  ZINC000469435497    0.0700
     33 H33       -13.9451   -6.2589   56.1179 H       1  ZINC000469435497    0.0700
     34 H34       -12.9407   -2.8807   55.2699 H       1  ZINC000469435497    0.0900
     35 H35       -14.0005   -2.2536   56.5760 H       1  ZINC000469435497    0.0900
     36 H36       -11.8184   -0.3240   56.9267 H       1  ZINC000469435497    0.1400
     37 H37        -9.6218    0.5237   59.2677 H       1  ZINC000469435497    0.4200
     38 H38        -9.3018    2.9964   57.5408 H       1  ZINC000469435497    0.1100
     39 H39        -8.0744    2.2444   58.5879 H       1  ZINC000469435497    0.1100
     40 H40        -7.6476    2.2379   55.6643 H       1  ZINC000469435497    0.4100
     41 H41        -3.9231    4.2314   57.3213 H       1  ZINC000469435497    0.1300
     42 H42        -2.2089    4.6749   55.6181 H       1  ZINC000469435497    0.1300
     43 H43        -2.5138    5.0924   52.4455 H       1  ZINC000469435497    0.0900
     44 H44        -1.4668    3.7597   53.0201 H       1  ZINC000469435497    0.0800
     45 H45        -2.9954    3.5615   50.7243 H       1  ZINC000469435497    0.0800
     46 H46        -2.6230    2.1400   51.7556 H       1  ZINC000469435497    0.0700
     47 H47        -5.1558    3.8050   51.6249 H       1  ZINC000469435497    0.0800
     48 H48        -4.9727    2.0515   51.9316 H       1  ZINC000469435497    0.0800
     49 H49        -6.4732    2.5848   54.2946 H       1  ZINC000469435497    0.1400
     50 H50        -8.7524   -2.1493   59.2798 H       1  ZINC000469435497    0.1400
     51 H51        -9.7428   -4.3556   58.8625 H       1  ZINC000469435497    0.1300
@<TRIPOS>BOND
     1     1     2    1
     2     1    28    1
     3     1    29    1
     4     1    30    1
     5     2    27    1
     6     2     3    1
     7     2     4    1
     8     3    31    1
     9     3    32    1
    10     3    33    1
    11     4     5    1
    12     4    34    1
    13     4    35    1
    14     5    26   ar
    15     5     6   ar
    16     6     7   ar
    17     6    36    1
    18     7     8    1
    19     7    24   ar
    20     8     9   am
    21     8    37    1
    22     9    10    2
    23     9    11    1
    24    11    12    1
    25    11    38    1
    26    11    39    1
    27    12    13   am
    28    12    40    1
    29    13    14    2
    30    13    15    1
    31    15    23   ar
    32    15    16   ar
    33    16    17   ar
    34    16    41    1
    35    17    18   ar
    36    17    42    1
    37    18    22   ar
    38    18    19    1
    39    19    20    1
    40    19    43    1
    41    19    44    1
    42    20    21    1
    43    20    45    1
    44    20    46    1
    45    21    22    1
    46    21    47    1
    47    21    48    1
    48    22    23   ar
    49    23    49    1
    50    24    25   ar
    51    24    50    1
    52    25    26   ar
    53    25    51    1
    54    26    27    1
@<TRIPOS>SUBSTRUCTURE
     1 ZINC000469435497        1 TEMP              0 ****  ****    0 ROOT


##########                                Name:    ZINC000484424341
##########                DOCK_Rotatable_Bonds:                   7
##########                         Heavy_Atoms:                  26
##########                    Molecular_Weight:             359.425
##########                DOCK_Rotatable_Bonds:                   7
##########                       Formal_Charge:          -0.0100009
##########                     HBond_Acceptors:                   7
##########                        HBond_Donors:                   1
##########                         Heavy_Atoms:                  26
##########                          Grid_Score:          -31.192211
##########                     Grid_vdw_energy:          -30.699772
##########                      Grid_es_energy:           -0.492439
##########           Internal_energy_repulsive:           14.357822

@<TRIPOS>MOLECULE
ZINC000484424341
 51 53 1 0 0
SMALL
USER_CHARGES


@<TRIPOS>ATOM
      1 C1          4.7871    1.6110   39.1161 C.3     1  ZINC000484424341    0.0300
      2 O2          3.7163    1.4892   40.0545 O.3     1  ZINC000484424341   -0.3800
      3 C3          2.4165    1.5924   39.4699 C.3     1  ZINC000484424341    0.1300
      4 H4          2.4350    1.1683   38.4660 H       1  ZINC000484424341    0.0700
      5 C5          2.0068    3.0646   39.3942 C.3     1  ZINC000484424341   -0.1700
      6 C6          1.4238    0.8376   40.3158 C.ar    1  ZINC000484424341   -0.0700
      7 C7          0.4227    0.0990   39.7124 C.ar    1  ZINC000484424341   -0.1000
      8 C8         -0.4905   -0.5954   40.4850 C.ar    1  ZINC000484424341   -0.1000
      9 C9         -0.4052   -0.5532   41.8624 C.ar    1  ZINC000484424341   -0.1100
     10 C10         0.5996    0.1880   42.4723 C.ar    1  ZINC000484424341    0.1400
     11 N11         0.6892    0.2326   43.8659 N.am    1  ZINC000484424341   -0.6400
     12 C12        -0.1867    0.9728   44.5742 C.2     1  ZINC000484424341    0.5100
     13 O13        -1.0533    1.6005   44.0014 O.2     1  ZINC000484424341   -0.4900
     14 C14        -0.0909    1.0204   46.0638 C.2     1  ZINC000484424341    0.5200
     15 O15         0.9232    0.6509   46.6189 O.2     1  ZINC000484424341   -0.5200
     16 N16        -1.1307    1.4738   46.7918 N.am    1  ZINC000484424341   -0.5800
     17 C17        -2.4122    1.9501   46.2512 C.3     1  ZINC000484424341    0.1100
     18 C18        -3.2996    2.3401   47.4520 C.3     1  ZINC000484424341   -0.1500
     19 C19        -2.6780    1.5306   48.6207 C.3     1  ZINC000484424341    0.1500
     20 H20        -3.0491    0.5056   48.6269 H       1  ZINC000484424341    0.1100
     21 N21        -2.9314    2.1856   49.9064 N.am    1  ZINC000484424341   -0.6100
     22 C22        -2.0800    3.2316   50.4851 C.3     1  ZINC000484424341    0.1000
     23 C23        -2.9408    3.9074   51.5753 C.3     1  ZINC000484424341   -0.1300
     24 C24        -3.9277    2.7755   51.9444 C.3     1  ZINC000484424341   -0.1600
     25 C25        -3.9769    1.9095   50.7050 C.2     1  ZINC000484424341    0.5200
     26 O26        -4.8312    1.0816   50.4696 O.2     1  ZINC000484424341   -0.5200
     27 C27        -1.1736    1.5683   48.2624 C.3     1  ZINC000484424341    0.0900
     28 C28         1.5184    0.8796   41.6932 C.ar    1  ZINC000484424341   -0.1300
     29 H29         4.7314    2.5827   38.6254 H       1  ZINC000484424341    0.0400
     30 H30         5.7397    1.5216   39.6383 H       1  ZINC000484424341    0.0900
     31 H31         4.7069    0.8214   38.3689 H       1  ZINC000484424341    0.0400
     32 H32         1.9883    3.4887   40.3981 H       1  ZINC000484424341    0.0700
     33 H33         2.7248    3.6105   38.7823 H       1  ZINC000484424341    0.0600
     34 H34         1.0152    3.1433   38.9482 H       1  ZINC000484424341    0.0700
     35 H35         0.3534    0.0645   38.6352 H       1  ZINC000484424341    0.1300
     36 H36        -1.2714   -1.1710   40.0103 H       1  ZINC000484424341    0.1300
     37 H37        -1.1187   -1.0953   42.4652 H       1  ZINC000484424341    0.1300
     38 H38         1.3817   -0.2692   44.3237 H       1  ZINC000484424341    0.4200
     39 H39        -2.2459    2.8196   45.6153 H       1  ZINC000484424341    0.0800
     40 H40        -2.8912    1.1557   45.6787 H       1  ZINC000484424341    0.0800
     41 H41        -3.2355    3.4104   47.6474 H       1  ZINC000484424341    0.0900
     42 H42        -4.3333    2.0391   47.2815 H       1  ZINC000484424341    0.0900
     43 H43        -1.1881    2.7894   50.9289 H       1  ZINC000484424341    0.0800
     44 H44        -1.8017    3.9571   49.7206 H       1  ZINC000484424341    0.0800
     45 H45        -2.3318    4.1894   52.4341 H       1  ZINC000484424341    0.0900
     46 H46        -3.4707    4.7714   51.1741 H       1  ZINC000484424341    0.0800
     47 H47        -3.5550    2.2075   52.7968 H       1  ZINC000484424341    0.1100
     48 H48        -4.9145    3.1850   52.1598 H       1  ZINC000484424341    0.1000
     49 H49        -0.6544    0.7238   48.7155 H       1  ZINC000484424341    0.0900
     50 H50        -0.7291    2.5080   48.5900 H       1  ZINC000484424341    0.0900
     51 H51         2.3008    1.4564   42.1639 H       1  ZINC000484424341    0.1300
@<TRIPOS>BOND
     1     1     2    1
     2     1    29    1
     3     1    30    1
     4     1    31    1
     5     2     3    1
     6     3     4    1
     7     3     5    1
     8     3     6    1
     9     5    32    1
    10     5    33    1
    11     5    34    1
    12     6    28   ar
    13     6     7   ar
    14     7     8   ar
    15     7    35    1
    16     8     9   ar
    17     8    36    1
    18     9    10   ar
    19     9    37    1
    20    10    11    1
    21    10    28   ar
    22    11    12   am
    23    11    38    1
    24    12    13    2
    25    12    14    1
    26    14    15    2
    27    14    16   am
    28    16    27    1
    29    16    17    1
    30    17    18    1
    31    17    39    1
    32    17    40    1
    33    18    19    1
    34    18    41    1
    35    18    42    1
    36    19    20    1
    37    19    21    1
    38    19    27    1
    39    21    25   am
    40    21    22    1
    41    22    23    1
    42    22    43    1
    43    22    44    1
    44    23    24    1
    45    23    45    1
    46    23    46    1
    47    24    25    1
    48    24    47    1
    49    24    48    1
    50    25    26    2
    51    27    49    1
    52    27    50    1
    53    28    51    1
@<TRIPOS>SUBSTRUCTURE
     1 ZINC000484424341        1 TEMP              0 ****  ****    0 ROOT


##########                                Name:    ZINC000629379364
##########                DOCK_Rotatable_Bonds:                   5
##########                         Heavy_Atoms:                  23
##########                    Molecular_Weight:             386.261
##########                DOCK_Rotatable_Bonds:                   5
##########                       Formal_Charge:               -0.02
##########                     HBond_Acceptors:                   5
##########                        HBond_Donors:                   1
##########                         Heavy_Atoms:                  23
##########                          Grid_Score:          -31.153248
##########                     Grid_vdw_energy:          -29.279007
##########                      Grid_es_energy:           -1.874241
##########           Internal_energy_repulsive:           20.127859

@<TRIPOS>MOLECULE
ZINC000629379364
 44 46 1 0 0
SMALL
USER_CHARGES


@<TRIPOS>ATOM
      1 O1        -13.1186   -3.4574   57.9437 O.co2   1  ZINC000629379364   -0.6800
      2 C2        -12.0348   -3.9104   57.6172 C.2     1  ZINC000629379364    0.5000
      3 O3        -11.9746   -4.9491   56.9815 O.co2   1  ZINC000629379364   -0.6900
      4 C4        -10.7697   -3.1832   57.9938 C.3     1  ZINC000629379364   -0.1600
      5 H5         -9.9832   -3.4070   57.2730 H       1  ZINC000629379364    0.0800
      6 C6        -10.3234   -3.6013   59.4058 C.3     1  ZINC000629379364   -0.1300
      7 C7         -9.1275   -2.7770   59.8731 C.3     1  ZINC000629379364   -0.0100
      8 N8         -9.3965   -1.3281   59.7961 N.4     1  ZINC000629379364   -0.3700
      9 H9         -8.5882   -0.8122   60.1098 H       1  ZINC000629379364    0.4200
     10 C10       -10.5580   -0.9910   60.6299 C.3     1  ZINC000629379364   -0.0200
     11 C11       -10.1104   -0.8207   62.0830 C.3     1  ZINC000629379364    0.0300
     12 O12       -10.0068    0.5712   62.3895 O.3     1  ZINC000629379364   -0.3200
     13 C13        -9.6468    0.8984   63.6584 C.ar    1  ZINC000629379364    0.1600
     14 C14        -8.8550    0.0346   64.4001 C.ar    1  ZINC000629379364   -0.2300
     15 C15        -8.4896    0.3699   65.6920 C.ar    1  ZINC000629379364    0.1500
     16 F16        -7.7183   -0.4709   66.4155 F       1  ZINC000629379364   -0.1200
     17 C17        -8.9142    1.5669   66.2434 C.ar    1  ZINC000629379364   -0.1600
     18 C18        -9.7045    2.4289   65.5042 C.ar    1  ZINC000629379364   -0.0300
     19 Br19      -10.2826    4.0631   66.2601 Br      1  ZINC000629379364   -0.0100
     20 C20       -10.0664    2.0998   64.2114 C.ar    1  ZINC000629379364   -0.1300
     21 C21        -9.6762   -1.0101   58.4051 C.3     1  ZINC000629379364   -0.0100
     22 H22        -8.8797   -1.3934   57.7673 H       1  ZINC000629379364    0.1400
     23 C23        -9.9411    0.4647   58.0851 C.3     1  ZINC000629379364   -0.1300
     24 C24       -10.7425    0.3952   56.7568 C.3     1  ZINC000629379364   -0.1200
     25 C25       -11.4027   -1.0051   56.7177 C.3     1  ZINC000629379364   -0.1100
     26 C26       -11.0243   -1.6862   58.0358 C.3     1  ZINC000629379364   -0.0700
     27 H27       -11.7581   -1.4426   58.8041 H       1  ZINC000629379364    0.1000
     28 H28       -11.1510   -3.4554   60.0999 H       1  ZINC000629379364    0.0800
     29 H29       -10.0483   -4.6559   59.3959 H       1  ZINC000629379364    0.1100
     30 H30        -8.8960   -3.0407   60.9052 H       1  ZINC000629379364    0.1200
     31 H31        -8.2674   -3.0123   59.2465 H       1  ZINC000629379364    0.1300
     32 H32       -11.0023   -0.0611   60.2752 H       1  ZINC000629379364    0.1400
     33 H33       -11.2944   -1.7923   60.5682 H       1  ZINC000629379364    0.1700
     34 H34       -10.8412   -1.2852   62.7451 H       1  ZINC000629379364    0.1100
     35 H35        -9.1397   -1.2966   62.2224 H       1  ZINC000629379364    0.0900
     36 H36        -8.5240   -0.8991   63.9697 H       1  ZINC000629379364    0.1500
     37 H37        -8.6282    1.8279   67.2516 H       1  ZINC000629379364    0.1500
     38 H38       -10.6831    2.7736   63.6351 H       1  ZINC000629379364    0.1500
     39 H39       -10.5371    0.9287   58.8709 H       1  ZINC000629379364    0.0800
     40 H40        -9.0039    1.0025   57.9421 H       1  ZINC000629379364    0.0900
     41 H41       -11.5085    1.1705   56.7410 H       1  ZINC000629379364    0.0800
     42 H42       -10.0700    0.5156   55.9075 H       1  ZINC000629379364    0.0800
     43 H43       -12.4848   -0.9098   56.6274 H       1  ZINC000629379364    0.0900
     44 H44       -11.0037   -1.5874   55.8871 H       1  ZINC000629379364    0.0800
@<TRIPOS>BOND
     1     1     2   ar
     2     2     3   ar
     3     2     4    1
     4     4     5    1
     5     4    26    1
     6     4     6    1
     7     6     7    1
     8     6    28    1
     9     6    29    1
    10     7     8    1
    11     7    30    1
    12     7    31    1
    13     8     9    1
    14     8    10    1
    15     8    21    1
    16    10    11    1
    17    10    32    1
    18    10    33    1
    19    11    12    1
    20    11    34    1
    21    11    35    1
    22    12    13    1
    23    13    20   ar
    24    13    14   ar
    25    14    15   ar
    26    14    36    1
    27    15    16    1
    28    15    17   ar
    29    17    18   ar
    30    17    37    1
    31    18    19    1
    32    18    20   ar
    33    20    38    1
    34    21    22    1
    35    21    26    1
    36    21    23    1
    37    23    24    1
    38    23    39    1
    39    23    40    1
    40    24    25    1
    41    24    41    1
    42    24    42    1
    43    25    26    1
    44    25    43    1
    45    25    44    1
    46    26    27    1
@<TRIPOS>SUBSTRUCTURE
     1 ZINC000629379364        1 TEMP              0 ****  ****    0 ROOT


##########                                Name:    ZINC000482910431
##########                DOCK_Rotatable_Bonds:                   7
##########                         Heavy_Atoms:                  29
##########                    Molecular_Weight:             414.867
##########                DOCK_Rotatable_Bonds:                   7
##########                       Formal_Charge:          -0.0300001
##########                     HBond_Acceptors:                   8
##########                        HBond_Donors:                   2
##########                         Heavy_Atoms:                  29
##########                          Grid_Score:          -31.127058
##########                     Grid_vdw_energy:          -30.717329
##########                      Grid_es_energy:           -0.409728
##########           Internal_energy_repulsive:           18.335062

@<TRIPOS>MOLECULE
ZINC000482910431
 49 51 1 0 0
SMALL
USER_CHARGES


@<TRIPOS>ATOM
      1 C1        -14.6002   -1.6179   49.6484 C.3     1  ZINC000482910431   -0.1500
      2 C2        -15.2016   -1.4491   51.0450 C.3     1  ZINC000482910431    0.0800
      3 C3        -15.7604   -0.0323   51.1918 C.3     1  ZINC000482910431   -0.1400
      4 C4        -16.2862   -2.4263   51.2336 C.1     1  ZINC000482910431    0.2100
      5 N5        -17.1233   -3.1804   51.3791 N.1     1  ZINC000482910431   -0.4300
      6 C6        -14.1334   -1.6778   52.0830 C.ar    1  ZINC000482910431   -0.1000
      7 C7        -13.3153   -0.6333   52.4728 C.ar    1  ZINC000482910431   -0.0900
      8 C8        -12.3356   -0.8395   53.4242 C.ar    1  ZINC000482910431   -0.1200
      9 C9        -12.1726   -2.0973   53.9896 C.ar    1  ZINC000482910431    0.1700
     10 N10       -11.1811   -2.3094   54.9542 N.am    1  ZINC000482910431   -0.6800
     11 C11       -11.5210   -2.7294   56.1888 C.2     1  ZINC000482910431    0.7100
     12 O12       -12.6891   -2.9240   56.4647 O.2     1  ZINC000482910431   -0.5500
     13 N13       -10.5662   -2.9336   57.1179 N.am    1  ZINC000482910431   -0.7300
     14 C14       -10.9359   -3.3885   58.4605 C.3     1  ZINC000482910431    0.1400
     15 H15       -11.7941   -4.0587   58.4124 H       1  ZINC000482910431    0.1400
     16 C16        -9.7388   -4.0902   59.1429 C.3     1  ZINC000482910431   -0.1400
     17 C17        -9.9059   -3.6411   60.6115 C.3     1  ZINC000482910431    0.0900
     18 N18       -10.6403   -2.3718   60.5517 N.am    1  ZINC000482910431   -0.5600
     19 C19       -10.7136   -1.4515   61.6038 C.ar    1  ZINC000482910431    0.2000
     20 C20        -9.5659   -1.1012   62.3023 C.ar    1  ZINC000482910431   -0.1600
     21 C21        -9.6396   -0.1928   63.3405 C.ar    1  ZINC000482910431   -0.0500
     22 C22       -10.8557    0.3686   63.6854 C.ar    1  ZINC000482910431   -0.1000
     23 Cl23      -10.9445    1.5099   64.9906 Cl      1  ZINC000482910431   -0.0500
     24 C24       -12.0036    0.0218   62.9900 C.ar    1  ZINC000482910431    0.1400
     25 F25       -13.1903    0.5718   63.3282 F       1  ZINC000482910431   -0.1200
     26 C26       -11.9333   -0.8833   61.9466 C.ar    1  ZINC000482910431   -0.1900
     27 C27       -11.2366   -2.2066   59.3558 C.2     1  ZINC000482910431    0.5000
     28 O28       -11.9118   -1.2490   59.0426 O.2     1  ZINC000482910431   -0.4800
     29 C29       -12.9957   -3.1442   53.5960 C.ar    1  ZINC000482910431   -0.1400
     30 C30       -13.9770   -2.9303   52.6479 C.ar    1  ZINC000482910431   -0.0900
     31 H31       -13.7971   -0.8943   49.5087 H       1  ZINC000482910431    0.0800
     32 H32       -14.2021   -2.6273   49.5438 H       1  ZINC000482910431    0.0700
     33 H33       -15.3729   -1.4525   48.8975 H       1  ZINC000482910431    0.0700
     34 H34       -16.5332    0.1331   50.4410 H       1  ZINC000482910431    0.0700
     35 H35       -16.1889    0.0880   52.1868 H       1  ZINC000482910431    0.0700
     36 H36       -14.9573    0.6912   51.0522 H       1  ZINC000482910431    0.0800
     37 H37       -13.4424    0.3447   52.0325 H       1  ZINC000482910431    0.1400
     38 H38       -11.6968   -0.0234   53.7280 H       1  ZINC000482910431    0.1400
     39 H39       -10.2493   -2.1540   54.7341 H       1  ZINC000482910431    0.4100
     40 H40        -9.6343   -2.7795   56.8975 H       1  ZINC000482910431    0.4000
     41 H41        -9.8197   -5.1736   59.0547 H       1  ZINC000482910431    0.1100
     42 H42        -8.7933   -3.7363   58.7320 H       1  ZINC000482910431    0.1000
     43 H43       -10.4783   -4.3820   61.1697 H       1  ZINC000482910431    0.0900
     44 H44        -8.9301   -3.4909   61.0734 H       1  ZINC000482910431    0.1000
     45 H45        -8.6157   -1.5392   62.0343 H       1  ZINC000482910431    0.1700
     46 H46        -8.7466    0.0790   63.8838 H       1  ZINC000482910431    0.1500
     47 H47       -12.8272   -1.1536   61.4042 H       1  ZINC000482910431    0.1500
     48 H48       -12.8714   -4.1236   54.0338 H       1  ZINC000482910431    0.1300
     49 H49       -14.6177   -3.7440   52.3417 H       1  ZINC000482910431    0.1300
@<TRIPOS>BOND
     1     1     2    1
     2     1    31    1
     3     1    32    1
     4     1    33    1
     5     2     3    1
     6     2     4    1
     7     2     6    1
     8     3    34    1
     9     3    35    1
    10     3    36    1
    11     4     5    3
    12     6    30   ar
    13     6     7   ar
    14     7     8   ar
    15     7    37    1
    16     8     9   ar
    17     8    38    1
    18     9    10    1
    19     9    29   ar
    20    10    11   am
    21    10    39    1
    22    11    12    2
    23    11    13   am
    24    13    14    1
    25    13    40    1
    26    14    15    1
    27    14    27    1
    28    14    16    1
    29    16    17    1
    30    16    41    1
    31    16    42    1
    32    17    18    1
    33    17    43    1
    34    17    44    1
    35    18    19    1
    36    18    27   am
    37    19    26   ar
    38    19    20   ar
    39    20    21   ar
    40    20    45    1
    41    21    22   ar
    42    21    46    1
    43    22    23    1
    44    22    24   ar
    45    24    25    1
    46    24    26   ar
    47    26    47    1
    48    27    28    2
    49    29    30   ar
    50    29    48    1
    51    30    49    1
@<TRIPOS>SUBSTRUCTURE
     1 ZINC000482910431        1 TEMP              0 ****  ****    0 ROOT


##########                                Name:    ZINC000057429281
##########                DOCK_Rotatable_Bonds:                  10
##########                         Heavy_Atoms:                  23
##########                    Molecular_Weight:             331.295
##########                DOCK_Rotatable_Bonds:                  10
##########                       Formal_Charge:          -0.0100002
##########                     HBond_Acceptors:                   9
##########                        HBond_Donors:                   5
##########                         Heavy_Atoms:                  23
##########                          Grid_Score:          -31.126245
##########                     Grid_vdw_energy:          -31.243847
##########                      Grid_es_energy:            0.117601
##########           Internal_energy_repulsive:           11.232343

@<TRIPOS>MOLECULE
ZINC000057429281
 39 39 1 0 0
SMALL
USER_CHARGES


@<TRIPOS>ATOM
      1 C1        -13.8771   -3.8992   54.6541 C.3     1  ZINC000057429281   -0.1500
      2 C2        -12.6433   -3.0019   54.5390 C.3     1  ZINC000057429281   -0.0400
      3 H3        -12.9528   -1.9906   54.2755 H       1  ZINC000057429281    0.0900
      4 C4        -11.7136   -3.5497   53.4544 C.3     1  ZINC000057429281   -0.1300
      5 C5        -11.1650   -2.4071   52.6390 C.2     1  ZINC000057429281    0.5200
      6 O6        -11.4586   -2.3028   51.4670 O.2     1  ZINC000057429281   -0.5300
      7 N7        -10.3481   -1.5014   53.2124 N.am    1  ZINC000057429281   -0.7000
      8 C8         -9.8133   -0.3917   52.4194 C.3     1  ZINC000057429281    0.1100
      9 C9         -9.5713    0.7954   53.3157 C.2     1  ZINC000057429281    0.5200
     10 N10        -9.1730    0.6078   54.5895 N.am    1  ZINC000057429281   -0.8500
     11 O11        -9.7351    1.9194   52.8908 O.2     1  ZINC000057429281   -0.5100
     12 C12        -8.5149   -0.8112   51.7798 C.2     1  ZINC000057429281    0.5300
     13 N13        -7.5454    0.0995   51.5627 N.am    1  ZINC000057429281   -0.8400
     14 O14        -8.3423   -1.9684   51.4604 O.2     1  ZINC000057429281   -0.5100
     15 C15       -11.9157   -2.9767   55.8585 C.ar    1  ZINC000057429281   -0.0500
     16 C16       -11.5662   -1.7685   56.4320 C.ar    1  ZINC000057429281   -0.1200
     17 C17       -10.8989   -1.7453   57.6425 C.ar    1  ZINC000057429281   -0.0700
     18 C18       -10.5815   -2.9304   58.2795 C.ar    1  ZINC000057429281   -0.1900
     19 C19        -9.8536   -2.9052   59.5989 C.3     1  ZINC000057429281    0.5100
     20 F20        -9.1727   -1.6905   59.7328 F       1  ZINC000057429281   -0.1800
     21 F21       -10.7753   -3.0408   60.6425 F       1  ZINC000057429281   -0.1800
     22 F22        -8.9371   -3.9612   59.6460 F       1  ZINC000057429281   -0.1800
     23 C23       -10.9322   -4.1385   57.7066 C.ar    1  ZINC000057429281   -0.0700
     24 C24       -11.6029   -4.1616   56.4981 C.ar    1  ZINC000057429281   -0.1100
     25 H25       -14.5395   -3.5090   55.4268 H       1  ZINC000057429281    0.0600
     26 H26       -14.4034   -3.9174   53.6997 H       1  ZINC000057429281    0.0800
     27 H27       -13.5676   -4.9106   54.9177 H       1  ZINC000057429281    0.0500
     28 H28       -10.8907   -4.0913   53.9207 H       1  ZINC000057429281    0.1000
     29 H29       -12.2710   -4.2246   52.8050 H       1  ZINC000057429281    0.1000
     30 H30       -10.1142   -1.5842   54.1502 H       1  ZINC000057429281    0.4200
     31 H31       -10.5297   -0.1212   51.6437 H       1  ZINC000057429281    0.1300
     32 H32        -9.0172    1.3718   55.1665 H       1  ZINC000057429281    0.4000
     33 H33        -9.0423   -0.2912   54.9293 H       1  ZINC000057429281    0.4100
     34 H34        -6.7096   -0.1705   51.1510 H       1  ZINC000057429281    0.4000
     35 H35        -7.6834    1.0250   51.8183 H       1  ZINC000057429281    0.4100
     36 H36       -11.8142   -0.8426   55.9344 H       1  ZINC000057429281    0.1400
     37 H37       -10.6252   -0.8014   58.0902 H       1  ZINC000057429281    0.1400
     38 H38       -10.6846   -5.0644   58.2045 H       1  ZINC000057429281    0.1400
     39 H39       -11.8770   -5.1055   56.0506 H       1  ZINC000057429281    0.1400
@<TRIPOS>BOND
     1     1     2    1
     2     1    25    1
     3     1    26    1
     4     1    27    1
     5     2     3    1
     6     2     4    1
     7     2    15    1
     8     4     5    1
     9     4    28    1
    10     4    29    1
    11     5     6    2
    12     5     7   am
    13     7     8    1
    14     7    30    1
    15     8     9    1
    16     8    12    1
    17     8    31    1
    18     9    10   am
    19     9    11    2
    20    10    32    1
    21    10    33    1
    22    12    13   am
    23    12    14    2
    24    13    34    1
    25    13    35    1
    26    15    24   ar
    27    15    16   ar
    28    16    17   ar
    29    16    36    1
    30    17    18   ar
    31    17    37    1
    32    18    19    1
    33    18    23   ar
    34    19    20    1
    35    19    21    1
    36    19    22    1
    37    23    24   ar
    38    23    38    1
    39    24    39    1
@<TRIPOS>SUBSTRUCTURE
     1 ZINC000057429281        1 TEMP              0 ****  ****    0 ROOT


##########                                Name:    ZINC000566738344
##########                DOCK_Rotatable_Bonds:                   5
##########                         Heavy_Atoms:                  23
##########                    Molecular_Weight:             352.478
##########                DOCK_Rotatable_Bonds:                   5
##########                       Formal_Charge:           0.0100005
##########                     HBond_Acceptors:                   7
##########                        HBond_Donors:                   0
##########                         Heavy_Atoms:                  23
##########                          Grid_Score:          -31.102901
##########                     Grid_vdw_energy:          -30.278000
##########                      Grid_es_energy:           -0.824902
##########           Internal_energy_repulsive:           20.083199

@<TRIPOS>MOLECULE
ZINC000566738344
 43 44 1 0 0
SMALL
USER_CHARGES


@<TRIPOS>ATOM
      1 C1         -8.9144    0.5598   64.3719 C.3     1  ZINC000566738344   -0.1300
      2 C2        -10.0752    0.0409   63.5631 C.ar    1  ZINC000566738344   -0.0100
      3 C3         -9.8659   -0.9059   62.5869 C.ar    1  ZINC000566738344   -0.1000
      4 C4        -10.9381   -1.3856   61.8387 C.ar    1  ZINC000566738344   -0.0500
      5 S5        -10.6657   -2.5975   60.5891 S.3     1  ZINC000566738344   -0.0300
      6 C6        -10.9608   -1.6754   59.0550 C.3     1  ZINC000566738344   -0.1200
      7 H7        -11.8740   -1.0886   59.1537 H       1  ZINC000566738344    0.1200
      8 C8         -9.7801   -0.7401   58.7870 C.3     1  ZINC000566738344   -0.1300
      9 C9        -11.1064   -2.6420   57.9080 C.2     1  ZINC000566738344    0.5200
     10 O10       -10.1197   -3.1055   57.3766 O.2     1  ZINC000566738344   -0.5000
     11 N11       -12.3331   -2.9914   57.4727 N.am    1  ZINC000566738344   -0.6000
     12 C12       -13.5250   -2.4302   58.1134 C.3     1  ZINC000566738344    0.0600
     13 C13       -12.4748   -3.9324   56.3589 C.3     1  ZINC000566738344    0.1500
     14 H14       -12.0917   -4.9094   56.6537 H       1  ZINC000566738344    0.1300
     15 C15       -13.9586   -4.0543   55.9701 C.3     1  ZINC000566738344   -0.1300
     16 C16       -14.0004   -4.7852   54.6033 C.3     1  ZINC000566738344   -0.5900
     17 S17       -12.6309   -3.9875   53.6825 S.o2    1  ZINC000566738344    2.4000
     18 O18       -11.8829   -4.9818   52.9963 O.2     1  ZINC000566738344   -0.9300
     19 O19       -13.1328   -2.8636   52.9724 O.2     1  ZINC000566738344   -0.9300
     20 C20       -11.6879   -3.4138   55.1389 C.3     1  ZINC000566738344   -0.6200
     21 C21       -12.2250   -0.9099   62.0763 C.ar    1  ZINC000566738344   -0.1400
     22 C22       -12.4410    0.0370   63.0514 C.ar    1  ZINC000566738344   -0.0400
     23 C23       -11.3674    0.5168   63.8078 C.ar    1  ZINC000566738344   -0.0400
     24 C24       -11.5887    1.5021   64.8232 C.1     1  ZINC000566738344    0.2500
     25 N25       -11.7643    2.2838   65.6287 N.1     1  ZINC000566738344   -0.4100
     26 H26        -8.7798   -0.0637   65.2557 H       1  ZINC000566738344    0.0800
     27 H27        -8.0085    0.5321   63.7663 H       1  ZINC000566738344    0.0800
     28 H28        -9.1153    1.5863   64.6786 H       1  ZINC000566738344    0.0700
     29 H29        -8.8690   -1.2770   62.4004 H       1  ZINC000566738344    0.1400
     30 H30        -8.8834   -1.3312   58.6003 H       1  ZINC000566738344    0.0800
     31 H31        -9.9962   -0.1227   57.9151 H       1  ZINC000566738344    0.0800
     32 H32        -9.6193   -0.1002   59.6545 H       1  ZINC000566738344    0.0900
     33 H33       -13.8084   -1.5067   57.6083 H       1  ZINC000566738344    0.0700
     34 H34       -14.3441   -3.1463   58.0477 H       1  ZINC000566738344    0.0800
     35 H35       -13.3095   -2.2198   59.1610 H       1  ZINC000566738344    0.0800
     36 H36       -14.4947   -4.6353   56.7205 H       1  ZINC000566738344    0.1100
     37 H37       -14.4028   -3.0633   55.8772 H       1  ZINC000566738344    0.0900
     38 H38       -13.8127   -5.8515   54.7288 H       1  ZINC000566738344    0.1400
     39 H39       -14.9537   -4.6153   54.1027 H       1  ZINC000566738344    0.1400
     40 H40       -11.6389   -2.3249   55.1532 H       1  ZINC000566738344    0.1400
     41 H41       -10.6840   -3.8385   55.1311 H       1  ZINC000566738344    0.1500
     42 H42       -13.0545   -1.2842   61.4947 H       1  ZINC000566738344    0.1200
     43 H43       -13.4393    0.4059   63.2349 H       1  ZINC000566738344    0.1400
@<TRIPOS>BOND
     1     1     2    1
     2     1    26    1
     3     1    27    1
     4     1    28    1
     5     2    23   ar
     6     2     3   ar
     7     3     4   ar
     8     3    29    1
     9     4     5    1
    10     4    21   ar
    11     5     6    1
    12     6     7    1
    13     6     8    1
    14     6     9    1
    15     8    30    1
    16     8    31    1
    17     8    32    1
    18     9    10    2
    19     9    11   am
    20    11    12    1
    21    11    13    1
    22    12    33    1
    23    12    34    1
    24    12    35    1
    25    13    14    1
    26    13    20    1
    27    13    15    1
    28    15    16    1
    29    15    36    1
    30    15    37    1
    31    16    17    1
    32    16    38    1
    33    16    39    1
    34    17    18    2
    35    17    19    2
    36    17    20    1
    37    20    40    1
    38    20    41    1
    39    21    22   ar
    40    21    42    1
    41    22    23   ar
    42    22    43    1
    43    23    24    1
    44    24    25    3
@<TRIPOS>SUBSTRUCTURE
     1 ZINC000566738344        1 TEMP              0 ****  ****    0 ROOT


##########                                Name:    ZINC000451500596
##########                DOCK_Rotatable_Bonds:                   7
##########                         Heavy_Atoms:                  25
##########                    Molecular_Weight:             365.497
##########                DOCK_Rotatable_Bonds:                   7
##########                       Formal_Charge:           0.0400004
##########                     HBond_Acceptors:                   7
##########                        HBond_Donors:                   2
##########                         Heavy_Atoms:                  25
##########                          Grid_Score:          -31.080585
##########                     Grid_vdw_energy:          -30.424707
##########                      Grid_es_energy:           -0.655879
##########           Internal_energy_repulsive:           10.945616

@<TRIPOS>MOLECULE
ZINC000451500596
 52 54 1 0 0
SMALL
USER_CHARGES


@<TRIPOS>ATOM
      1 C1        -11.3912   -3.5226   52.5260 C.3     1  ZINC000451500596   -0.6700
      2 S2        -13.0532   -2.8073   52.6544 S.o2    1  ZINC000451500596    2.6100
      3 O3        -13.5308   -2.4226   51.3725 O.2     1  ZINC000451500596   -0.9500
      4 O4        -13.8599   -3.5757   53.5366 O.2     1  ZINC000451500596   -0.9600
      5 N5        -12.8259   -1.3744   53.4526 N.am    1  ZINC000451500596   -1.1200
      6 C6        -11.9565   -0.3452   52.8770 C.3     1  ZINC000451500596    0.1200
      7 C7        -11.3998    0.5366   53.9966 C.3     1  ZINC000451500596   -0.1000
      8 H8        -12.2013    0.8285   54.6751 H       1  ZINC000451500596    0.0900
      9 C9        -10.7312    1.7914   53.3980 C.3     1  ZINC000451500596   -0.1200
     10 C10        -9.5025    2.0379   54.3083 C.3     1  ZINC000451500596   -0.1300
     11 C11        -9.0077    0.6017   54.6110 C.3     1  ZINC000451500596   -0.1300
     12 C12       -10.3049   -0.2203   54.7687 C.3     1  ZINC000451500596    0.1400
     13 H13       -10.1700   -1.2156   54.3455 H       1  ZINC000451500596    0.1000
     14 N14       -10.6655   -0.3220   56.1850 N.am    1  ZINC000451500596   -0.7200
     15 C15       -11.0941   -1.4964   56.6885 C.2     1  ZINC000451500596    0.5300
     16 O16       -11.1827   -2.4686   55.9687 O.2     1  ZINC000451500596   -0.5300
     17 C17       -11.4633   -1.6017   58.1457 C.3     1  ZINC000451500596   -0.1300
     18 H18       -12.3915   -1.0667   58.3464 H       1  ZINC000451500596    0.1000
     19 C19       -11.5829   -3.0877   58.5753 C.3     1  ZINC000451500596   -0.1200
     20 C20       -11.2806   -3.0003   60.0920 C.3     1  ZINC000451500596    0.0500
     21 N21       -10.2325   -1.9642   60.2091 N.3     1  ZINC000451500596   -0.4900
     22 C22       -10.3710   -1.2439   61.3977 C.ar    1  ZINC000451500596    0.0800
     23 C23        -9.3640   -1.2780   62.3538 C.ar    1  ZINC000451500596   -0.0900
     24 C24        -9.5040   -0.5643   63.5278 C.ar    1  ZINC000451500596   -0.1100
     25 C25       -10.6455    0.1834   63.7523 C.ar    1  ZINC000451500596   -0.1200
     26 C26       -11.6500    0.2196   62.8026 C.ar    1  ZINC000451500596   -0.1100
     27 C27       -11.5139   -0.4872   61.6239 C.ar    1  ZINC000451500596   -0.1500
     28 C28       -10.3224   -1.0685   59.0377 C.3     1  ZINC000451500596    0.0600
     29 H29       -10.7457   -2.8441   51.9682 H       1  ZINC000451500596    0.1300
     30 H30       -10.9825   -3.6737   53.5252 H       1  ZINC000451500596    0.1300
     31 H31       -11.4465   -4.4798   52.0075 H       1  ZINC000451500596    0.1300
     32 H32       -13.2683   -1.2164   54.3012 H       1  ZINC000451500596    0.4200
     33 H33       -11.1324   -0.8212   52.3457 H       1  ZINC000451500596    0.0700
     34 H34       -12.5304    0.2683   52.1825 H       1  ZINC000451500596    0.0900
     35 H35       -10.4142    1.6022   52.3723 H       1  ZINC000451500596    0.0800
     36 H36       -11.4118    2.6418   53.4372 H       1  ZINC000451500596    0.0700
     37 H37        -8.7376    2.6064   53.7792 H       1  ZINC000451500596    0.0700
     38 H38        -9.7976    2.5464   55.2261 H       1  ZINC000451500596    0.0700
     39 H39        -8.4125    0.2204   53.7813 H       1  ZINC000451500596    0.0800
     40 H40        -8.4307    0.5840   55.5355 H       1  ZINC000451500596    0.0700
     41 H41       -10.5957    0.4557   56.7603 H       1  ZINC000451500596    0.4000
     42 H42       -12.5901   -3.4653   58.3990 H       1  ZINC000451500596    0.0800
     43 H43       -10.8420   -3.7026   58.0643 H       1  ZINC000451500596    0.0800
     44 H44       -12.1737   -2.7003   60.6403 H       1  ZINC000451500596    0.0600
     45 H45       -10.9113   -3.9571   60.4611 H       1  ZINC000451500596    0.0900
     46 H46        -8.4725   -1.8623   62.1794 H       1  ZINC000451500596    0.1300
     47 H47        -8.7214   -0.5904   64.2716 H       1  ZINC000451500596    0.1300
     48 H48       -10.7528    0.7400   64.6715 H       1  ZINC000451500596    0.1200
     49 H49       -12.5402    0.8045   62.9810 H       1  ZINC000451500596    0.1200
     50 H50       -12.2986   -0.4584   60.8825 H       1  ZINC000451500596    0.1200
     51 H51        -9.3834   -1.0860   58.4845 H       1  ZINC000451500596    0.1000
     52 H52       -10.5443   -0.0525   59.3640 H       1  ZINC000451500596    0.0700
@<TRIPOS>BOND
     1     1     2    1
     2     1    29    1
     3     1    30    1
     4     1    31    1
     5     2     3    2
     6     2     4    2
     7     2     5   am
     8     5     6    1
     9     5    32    1
    10     6     7    1
    11     6    33    1
    12     6    34    1
    13     7     8    1
    14     7    12    1
    15     7     9    1
    16     9    10    1
    17     9    35    1
    18     9    36    1
    19    10    11    1
    20    10    37    1
    21    10    38    1
    22    11    12    1
    23    11    39    1
    24    11    40    1
    25    12    13    1
    26    12    14    1
    27    14    15   am
    28    14    41    1
    29    15    16    2
    30    15    17    1
    31    17    18    1
    32    17    28    1
    33    17    19    1
    34    19    20    1
    35    19    42    1
    36    19    43    1
    37    20    21    1
    38    20    44    1
    39    20    45    1
    40    21    22    1
    41    21    28    1
    42    22    27   ar
    43    22    23   ar
    44    23    24   ar
    45    23    46    1
    46    24    25   ar
    47    24    47    1
    48    25    26   ar
    49    25    48    1
    50    26    27   ar
    51    26    49    1
    52    27    50    1
    53    28    51    1
    54    28    52    1
@<TRIPOS>SUBSTRUCTURE
     1 ZINC000451500596        1 TEMP              0 ****  ****    0 ROOT


##########                                Name:    ZINC000898967786
##########                DOCK_Rotatable_Bonds:                   5
##########                         Heavy_Atoms:                  25
##########                    Molecular_Weight:             356.448
##########                DOCK_Rotatable_Bonds:                   5
##########                       Formal_Charge:        -2.38419e-07
##########                     HBond_Acceptors:                   7
##########                        HBond_Donors:                   1
##########                         Heavy_Atoms:                  25
##########                          Grid_Score:          -31.075846
##########                     Grid_vdw_energy:          -30.477797
##########                      Grid_es_energy:           -0.598050
##########           Internal_energy_repulsive:            8.516749

@<TRIPOS>MOLECULE
ZINC000898967786
 45 48 1 0 0
SMALL
USER_CHARGES


@<TRIPOS>ATOM
      1 C1        -14.8422   -1.5548   51.0903 C.3     1  ZINC000898967786   -0.0800
      2 C2        -14.5456   -2.3683   52.3238 C.2     1  ZINC000898967786    0.0900
      3 C3        -13.3343   -2.8515   52.6768 C.2     1  ZINC000898967786   -0.1000
      4 C4        -12.0454   -2.6773   51.9157 C.3     1  ZINC000898967786    0.2200
      5 N5        -11.4721   -1.3639   52.2204 N.am    1  ZINC000898967786   -0.7400
      6 C6        -10.1409   -1.1725   52.1307 C.2     1  ZINC000898967786    0.7100
      7 O7         -9.4160   -2.0896   51.7969 O.2     1  ZINC000898967786   -0.5800
      8 N8         -9.6136    0.0358   52.4110 N.am    1  ZINC000898967786   -0.6300
      9 C9        -10.4710    1.1607   52.8170 C.3     1  ZINC000898967786    0.0900
     10 C10       -10.1226    2.3730   51.9460 C.3     1  ZINC000898967786    0.0500
     11 O11        -8.7120    2.5994   51.9967 O.3     1  ZINC000898967786   -0.3700
     12 C12        -7.9276    1.5247   51.4737 C.3     1  ZINC000898967786    0.1400
     13 H13        -8.2206    1.3286   50.4423 H       1  ZINC000898967786    0.0700
     14 C14        -6.4682    1.8976   51.5202 C.2     1  ZINC000898967786   -0.1100
     15 C15        -5.6002    1.5169   50.5815 C.2     1  ZINC000898967786   -0.1800
     16 S16        -4.0009    2.1364   50.9711 S.3     1  ZINC000898967786    0.1100
     17 C17        -4.6192    2.9001   52.4299 C.2     1  ZINC000898967786   -0.2100
     18 C18        -5.9280    2.6658   52.5371 C.2     1  ZINC000898967786   -0.1300
     19 C19        -8.1629    0.2674   52.3260 C.3     1  ZINC000898967786    0.0900
     20 N20       -13.4968   -3.5284   53.8548 N.pl3   1  ZINC000898967786   -0.3500
     21 C21       -12.6264   -4.2080   54.6568 C.2     1  ZINC000898967786    0.0600
     22 C22       -13.0560   -4.7994   55.7912 C.2     1  ZINC000898967786   -0.1400
     23 C23       -14.4088   -4.7232   56.1619 C.2     1  ZINC000898967786   -0.1000
     24 C24       -15.2869   -4.0490   55.3716 C.2     1  ZINC000898967786   -0.0800
     25 C25       -14.8227   -3.4363   54.1903 C.2     1  ZINC000898967786    0.2400
     26 N26       -15.4349   -2.7266   53.2529 N.2     1  ZINC000898967786   -0.4900
     27 H27       -14.7168   -0.4956   51.3149 H       1  ZINC000898967786    0.0800
     28 H28       -14.1564   -1.8409   50.2929 H       1  ZINC000898967786    0.0700
     29 H29       -15.8679   -1.7396   50.7712 H       1  ZINC000898967786    0.0800
     30 H30       -11.3424   -3.4573   52.2081 H       1  ZINC000898967786    0.1000
     31 H31       -12.2426   -2.7483   50.8461 H       1  ZINC000898967786    0.0700
     32 H32       -12.0505   -0.6323   52.4868 H       1  ZINC000898967786    0.4000
     33 H33       -11.5182    0.8944   52.6738 H       1  ZINC000898967786    0.1100
     34 H34       -10.2923    1.3986   53.8657 H       1  ZINC000898967786    0.0800
     35 H35       -10.4236    2.1800   50.9162 H       1  ZINC000898967786    0.0600
     36 H36       -10.6462    3.2528   52.3202 H       1  ZINC000898967786    0.1100
     37 H37        -5.8423    0.9194   49.7151 H       1  ZINC000898967786    0.1700
     38 H38        -4.0303    3.4748   53.1293 H       1  ZINC000898967786    0.1700
     39 H39        -6.5197    3.0402   53.3592 H       1  ZINC000898967786    0.1400
     40 H40        -7.7506    0.4178   53.3237 H       1  ZINC000898967786    0.0800
     41 H41        -7.6827   -0.5905   51.8553 H       1  ZINC000898967786    0.0900
     42 H42       -11.5843   -4.2732   54.3809 H       1  ZINC000898967786    0.1600
     43 H43       -12.3565   -5.3341   56.4169 H       1  ZINC000898967786    0.1500
     44 H44       -14.7501   -5.1980   57.0698 H       1  ZINC000898967786    0.1500
     45 H45       -16.3294   -3.9841   55.6464 H       1  ZINC000898967786    0.1500
@<TRIPOS>BOND
     1     1     2    1
     2     1    27    1
     3     1    28    1
     4     1    29    1
     5     2    26    1
     6     2     3    2
     7     3     4    1
     8     3    20    1
     9     4     5    1
    10     4    30    1
    11     4    31    1
    12     5     6   am
    13     5    32    1
    14     6     7    2
    15     6     8   am
    16     8    19    1
    17     8     9    1
    18     9    10    1
    19     9    33    1
    20     9    34    1
    21    10    11    1
    22    10    35    1
    23    10    36    1
    24    11    12    1
    25    12    13    1
    26    12    14    1
    27    12    19    1
    28    14    18    1
    29    14    15    2
    30    15    16    1
    31    15    37    1
    32    16    17    1
    33    17    18    2
    34    17    38    1
    35    18    39    1
    36    19    40    1
    37    19    41    1
    38    20    25    1
    39    20    21    1
    40    21    22    2
    41    21    42    1
    42    22    23    1
    43    22    43    1
    44    23    24    2
    45    23    44    1
    46    24    25    1
    47    24    45    1
    48    25    26    2
@<TRIPOS>SUBSTRUCTURE
     1 ZINC000898967786        1 TEMP              0 ****  ****    0 ROOT


##########                                Name:    ZINC000326056918
##########                DOCK_Rotatable_Bonds:                   6
##########                         Heavy_Atoms:                  24
##########                    Molecular_Weight:             408.326
##########                DOCK_Rotatable_Bonds:                   6
##########                       Formal_Charge:         -0.00999978
##########                     HBond_Acceptors:                   9
##########                        HBond_Donors:                   0
##########                         Heavy_Atoms:                  24
##########                          Grid_Score:          -31.019615
##########                     Grid_vdw_energy:          -30.669525
##########                      Grid_es_energy:           -0.350091
##########           Internal_energy_repulsive:           23.961514

@<TRIPOS>MOLECULE
ZINC000326056918
 39 40 1 0 0
SMALL
USER_CHARGES


@<TRIPOS>ATOM
      1 C1        -14.4600   -2.4728   60.7947 C.3     1  ZINC000326056918    0.0400
      2 O2        -14.3446   -2.3621   59.3516 O.3     1  ZINC000326056918   -0.3500
      3 C3        -14.7332   -3.4286   58.6226 C.2     1  ZINC000326056918    0.5000
      4 O4        -15.1415   -4.4299   59.1795 O.2     1  ZINC000326056918   -0.4300
      5 C5        -14.6634   -3.3809   57.1611 C.2     1  ZINC000326056918   -0.1600
      6 C6        -13.5174   -3.4536   56.4187 C.2     1  ZINC000326056918   -0.6200
      7 S7        -11.9128   -3.6202   57.1276 S.o2    1  ZINC000326056918    2.6900
      8 O8        -12.1101   -4.0046   58.4813 O.2     1  ZINC000326056918   -0.9100
      9 O9        -11.1447   -4.3831   56.2071 O.2     1  ZINC000326056918   -0.9400
     10 N10       -11.2340   -2.1102   57.1645 N.am    1  ZINC000326056918   -0.9900
     11 C11       -11.9820   -0.9581   56.6552 C.3     1  ZINC000326056918    0.0900
     12 C12        -9.8854   -1.9263   57.7065 C.3     1  ZINC000326056918    0.1500
     13 C13        -9.9776   -1.3978   59.1146 C.ar    1  ZINC000326056918   -0.0900
     14 C14       -10.3902   -0.0980   59.3390 C.ar    1  ZINC000326056918   -0.0800
     15 C15       -10.4747    0.3878   60.6304 C.ar    1  ZINC000326056918   -0.1100
     16 C16       -10.1467   -0.4271   61.6991 C.ar    1  ZINC000326056918   -0.0200
     17 Cl17      -10.2534    0.1830   63.3209 Cl      1  ZINC000326056918   -0.0600
     18 C18        -9.7341   -1.7285   61.4752 C.ar    1  ZINC000326056918   -0.1100
     19 C19        -9.6548   -2.2156   60.1832 C.ar    1  ZINC000326056918   -0.0300
     20 Cl20       -9.1376   -3.8487   59.9012 Cl      1  ZINC000326056918   -0.0100
     21 C21       -13.7417   -3.3847   55.0647 C.2     1  ZINC000326056918   -0.0400
     22 C22       -12.6239   -3.4457   54.0559 C.3     1  ZINC000326056918   -0.1100
     23 C23       -15.0257   -3.2598   54.7074 C.2     1  ZINC000326056918   -0.2600
     24 S24       -16.0406   -3.2285   56.0785 S.3     1  ZINC000326056918    0.3100
     25 H25       -14.1151   -1.5487   61.2587 H       1  ZINC000326056918    0.1100
     26 H26       -15.5017   -2.6475   61.0637 H       1  ZINC000326056918    0.0700
     27 H27       -13.8497   -3.3052   61.1453 H       1  ZINC000326056918    0.0700
     28 H28       -12.6328   -0.5719   57.4397 H       1  ZINC000326056918    0.0600
     29 H29       -11.2845   -0.1799   56.3459 H       1  ZINC000326056918    0.0700
     30 H30       -12.5856   -1.2655   55.8011 H       1  ZINC000326056918    0.0900
     31 H31        -9.3621   -2.8825   57.7109 H       1  ZINC000326056918    0.1100
     32 H32        -9.3385   -1.2158   57.0867 H       1  ZINC000326056918    0.0900
     33 H33       -10.6464    0.5386   58.5049 H       1  ZINC000326056918    0.1400
     34 H34       -10.7965    1.4039   60.8051 H       1  ZINC000326056918    0.1400
     35 H35        -9.4779   -2.3651   62.3092 H       1  ZINC000326056918    0.1500
     36 H36       -12.3642   -4.4868   53.8639 H       1  ZINC000326056918    0.0900
     37 H37       -12.9465   -2.9745   53.1273 H       1  ZINC000326056918    0.0700
     38 H38       -11.7527   -2.9200   54.4466 H       1  ZINC000326056918    0.0900
     39 H39       -15.3731   -3.1918   53.6870 H       1  ZINC000326056918    0.1800
@<TRIPOS>BOND
     1     1     2    1
     2     1    25    1
     3     1    26    1
     4     1    27    1
     5     2     3    1
     6     3     4    2
     7     3     5    1
     8     5    24    1
     9     5     6    2
    10     6     7    1
    11     6    21    1
    12     7     8    2
    13     7     9    2
    14     7    10   am
    15    10    11    1
    16    10    12    1
    17    11    28    1
    18    11    29    1
    19    11    30    1
    20    12    13    1
    21    12    31    1
    22    12    32    1
    23    13    19   ar
    24    13    14   ar
    25    14    15   ar
    26    14    33    1
    27    15    16   ar
    28    15    34    1
    29    16    17    1
    30    16    18   ar
    31    18    19   ar
    32    18    35    1
    33    19    20    1
    34    21    22    1
    35    21    23    2
    36    22    36    1
    37    22    37    1
    38    22    38    1
    39    23    24    1
    40    23    39    1
@<TRIPOS>SUBSTRUCTURE
     1 ZINC000326056918        1 TEMP              0 ****  ****    0 ROOT


##########                                Name:    ZINC001079355651
##########                DOCK_Rotatable_Bonds:                   5
##########                         Heavy_Atoms:                  25
##########                    Molecular_Weight:             353.851
##########                DOCK_Rotatable_Bonds:                   5
##########                       Formal_Charge:           0.0199997
##########                     HBond_Acceptors:                   5
##########                        HBond_Donors:                   1
##########                         Heavy_Atoms:                  25
##########                          Grid_Score:          -31.016909
##########                     Grid_vdw_energy:          -30.620480
##########                      Grid_es_energy:           -0.396429
##########           Internal_energy_repulsive:            4.115175

@<TRIPOS>MOLECULE
ZINC001079355651
 45 47 1 0 0
SMALL
USER_CHARGES


@<TRIPOS>ATOM
      1 C1        -14.5092   -4.7221   57.1980 C.3     1  ZINC001079355651   -0.1500
      2 C2        -13.6095   -3.5256   56.8817 C.3     1  ZINC001079355651   -0.1000
      3 H3        -14.0572   -2.6061   57.2583 H       1  ZINC001079355651    0.0900
      4 C4        -13.3710   -3.4217   55.3599 C.3     1  ZINC001079355651    0.0300
      5 N5        -11.9587   -2.9790   55.2318 N.3     1  ZINC001079355651   -0.5100
      6 C6        -11.4249   -3.3005   53.9016 C.3     1  ZINC001079355651    0.1600
      7 C7        -12.0733   -2.4466   52.8931 C.1     1  ZINC001079355651   -0.1400
      8 C8        -12.5905   -1.7656   52.0887 C.1     1  ZINC001079355651   -0.1300
      9 C9        -13.2213   -0.9349   51.1076 C.ar    1  ZINC001079355651    0.0300
     10 C10       -13.2901    0.4455   51.2983 C.ar    1  ZINC001079355651   -0.0900
     11 C11       -13.8993    1.2412   50.3495 C.ar    1  ZINC001079355651   -0.1000
     12 C12       -14.4413    0.6733   49.2108 C.ar    1  ZINC001079355651   -0.1000
     13 C13       -14.3771   -0.6961   49.0152 C.ar    1  ZINC001079355651   -0.0300
     14 Cl14      -15.0609   -1.3998   47.5831 Cl      1  ZINC001079355651   -0.0600
     15 C15       -13.7648   -1.5021   49.9543 C.ar    1  ZINC001079355651   -0.0900
     16 C16       -11.2417   -3.7354   56.2904 C.3     1  ZINC001079355651    0.0200
     17 C17       -12.2095   -3.7308   57.4960 C.3     1  ZINC001079355651    0.1500
     18 H18       -12.1632   -4.6842   58.0223 H       1  ZINC001079355651    0.1000
     19 N19       -11.8822   -2.6312   58.4072 N.am    1  ZINC001079355651   -0.7100
     20 C20       -10.9737   -2.8147   59.3857 C.2     1  ZINC001079355651    0.5600
     21 O21       -10.4251   -3.8917   59.5113 O.2     1  ZINC001079355651   -0.5300
     22 C22       -10.6440   -1.7033   60.3082 C.ar    1  ZINC001079355651   -0.0900
     23 C23        -9.8321   -1.9147   61.4266 C.ar    1  ZINC001079355651   -0.1400
     24 C24        -9.5501   -0.8499   62.2604 C.ar    1  ZINC001079355651    0.1000
     25 N25       -10.0350    0.3506   62.0128 N.ar    1  ZINC001079355651   -0.4700
     26 C26       -10.8039    0.5929   60.9700 C.ar    1  ZINC001079355651    0.1000
     27 C27       -11.1315   -0.4127   60.0813 C.ar    1  ZINC001079355651   -0.1200
     28 H28       -14.6275   -4.8123   58.2778 H       1  ZINC001079355651    0.0600
     29 H29       -15.4856   -4.5745   56.7366 H       1  ZINC001079355651    0.0700
     30 H30       -14.0554   -5.6319   56.8049 H       1  ZINC001079355651    0.0600
     31 H31       -13.5092   -4.3936   54.8862 H       1  ZINC001079355651    0.0600
     32 H32       -14.0421   -2.6842   54.9195 H       1  ZINC001079355651    0.0900
     33 H33       -10.3492   -3.1244   53.8895 H       1  ZINC001079355651    0.0700
     34 H34       -11.6241   -4.3476   53.6734 H       1  ZINC001079355651    0.1100
     35 H35       -12.8677    0.8906   52.1871 H       1  ZINC001079355651    0.1300
     36 H36       -13.9532    2.3097   50.4965 H       1  ZINC001079355651    0.1400
     37 H37       -14.9171    1.3005   48.4713 H       1  ZINC001079355651    0.1400
     38 H38       -13.7150   -2.5700   49.8011 H       1  ZINC001079355651    0.1400
     39 H39       -11.0466   -4.7563   55.9622 H       1  ZINC001079355651    0.0600
     40 H40       -10.3093   -3.2340   56.5505 H       1  ZINC001079355651    0.0900
     41 H41       -12.3192   -1.7712   58.3062 H       1  ZINC001079355651    0.4000
     42 H42        -9.4317   -2.8957   61.6358 H       1  ZINC001079355651    0.1400
     43 H43        -8.9241   -1.0032   63.1271 H       1  ZINC001079355651    0.1600
     44 H44       -11.1796    1.5921   60.8060 H       1  ZINC001079355651    0.1700
     45 H45       -11.7622   -0.2069   59.2290 H       1  ZINC001079355651    0.1500
@<TRIPOS>BOND
     1     1     2    1
     2     1    28    1
     3     1    29    1
     4     1    30    1
     5     2     3    1
     6     2    17    1
     7     2     4    1
     8     4     5    1
     9     4    31    1
    10     4    32    1
    11     5     6    1
    12     5    16    1
    13     6     7    1
    14     6    33    1
    15     6    34    1
    16     7     8    3
    17     8     9    1
    18     9    15   ar
    19     9    10   ar
    20    10    11   ar
    21    10    35    1
    22    11    12   ar
    23    11    36    1
    24    12    13   ar
    25    12    37    1
    26    13    14    1
    27    13    15   ar
    28    15    38    1
    29    16    17    1
    30    16    39    1
    31    16    40    1
    32    17    18    1
    33    17    19    1
    34    19    20   am
    35    19    41    1
    36    20    21    2
    37    20    22    1
    38    22    27   ar
    39    22    23   ar
    40    23    24   ar
    41    23    42    1
    42    24    25   ar
    43    24    43    1
    44    25    26   ar
    45    26    27   ar
    46    26    44    1
    47    27    45    1
@<TRIPOS>SUBSTRUCTURE
     1 ZINC001079355651        1 TEMP              0 ****  ****    0 ROOT


##########                                Name:    ZINC000561219098
##########                DOCK_Rotatable_Bonds:                   4
##########                         Heavy_Atoms:                  28
##########                    Molecular_Weight:             423.273
##########                DOCK_Rotatable_Bonds:                   4
##########                       Formal_Charge:          0.00999953
##########                     HBond_Acceptors:                   9
##########                        HBond_Donors:                   1
##########                         Heavy_Atoms:                  28
##########                          Grid_Score:          -31.014153
##########                     Grid_vdw_energy:          -31.395372
##########                      Grid_es_energy:            0.381219
##########           Internal_energy_repulsive:            9.513719

@<TRIPOS>MOLECULE
ZINC000561219098
 45 48 1 0 0
SMALL
USER_CHARGES


@<TRIPOS>ATOM
      1 C1         -5.7555    0.8878   50.7730 C.3     1  ZINC000561219098    0.0700
      2 N2         -7.0359    1.2008   51.4122 N.pl3   1  ZINC000561219098   -0.4500
      3 C3         -7.3524    2.3823   52.0158 C.2     1  ZINC000561219098   -0.0100
      4 C4         -8.6111    2.2983   52.4862 C.2     1  ZINC000561219098   -0.1700
      5 C5         -9.0988    1.0076   52.1607 C.2     1  ZINC000561219098   -0.1100
      6 C6        -10.4444    0.4662   52.4805 C.2     1  ZINC000561219098    0.1600
      7 N7        -11.4323    1.1380   53.0346 N.2     1  ZINC000561219098   -0.2700
      8 N8        -12.5336    0.2843   53.1730 N.pl3   1  ZINC000561219098   -0.4700
      9 C9        -12.1805   -0.9413   52.6802 C.2     1  ZINC000561219098    0.0300
     10 C10       -13.0339   -2.1394   52.6270 C.2     1  ZINC000561219098    0.5900
     11 O11       -13.7610   -2.3261   51.6700 O.2     1  ZINC000561219098   -0.5000
     12 N12       -13.0096   -3.0295   53.6386 N.am    1  ZINC000561219098   -0.6100
     13 C13       -13.8535   -4.2345   53.6079 C.3     1  ZINC000561219098    0.0500
     14 C14       -14.6159   -4.3249   54.9348 C.3     1  ZINC000561219098    0.0500
     15 O15       -13.6883   -4.2269   56.0182 O.3     1  ZINC000561219098   -0.3700
     16 C16       -12.9838   -2.9842   56.0750 C.3     1  ZINC000561219098    0.1200
     17 H17       -13.6980   -2.1635   56.1415 H       1  ZINC000561219098    0.0900
     18 C18       -12.0859   -2.9695   57.2851 C.ar    1  ZINC000561219098   -0.0500
     19 C19       -11.5278   -4.1470   57.7454 C.ar    1  ZINC000561219098   -0.1000
     20 C20       -10.7025   -4.1338   58.8569 C.ar    1  ZINC000561219098    0.1200
     21 F21       -10.1564   -5.2846   59.3069 F       1  ZINC000561219098   -0.1200
     22 C22       -10.4366   -2.9396   59.5071 C.ar    1  ZINC000561219098   -0.0600
     23 Cl23       -9.4014   -2.9215   60.9007 Cl      1  ZINC000561219098   -0.0300
     24 C24       -10.9958   -1.7621   59.0453 C.ar    1  ZINC000561219098   -0.0700
     25 C25       -11.8160   -1.7761   57.9315 C.ar    1  ZINC000561219098   -0.0300
     26 Cl26      -12.5174   -0.2977   57.3518 Cl      1  ZINC000561219098   -0.0400
     27 C27       -12.1337   -2.8281   54.8038 C.3     1  ZINC000561219098    0.0900
     28 C28       -10.8791   -0.8447   52.2375 C.2     1  ZINC000561219098   -0.1700
     29 C29        -8.1053    0.3609   51.4949 C.2     1  ZINC000561219098    0.0300
     30 H30        -5.7939    1.1756   49.7223 H       1  ZINC000561219098    0.0800
     31 H31        -4.9567    1.4372   51.2713 H       1  ZINC000561219098    0.0900
     32 H32        -5.5630   -0.1824   50.8497 H       1  ZINC000561219098    0.0900
     33 H33        -6.7026    3.2407   52.1019 H       1  ZINC000561219098    0.1700
     34 H34        -9.1497    3.0714   53.0140 H       1  ZINC000561219098    0.1400
     35 H35       -13.3946    0.5205   53.5522 H       1  ZINC000561219098    0.4400
     36 H36       -14.5613   -4.1660   52.7818 H       1  ZINC000561219098    0.1000
     37 H37       -13.2275   -5.1181   53.4833 H       1  ZINC000561219098    0.0900
     38 H38       -15.3361   -3.5090   54.9972 H       1  ZINC000561219098    0.0700
     39 H39       -15.1399   -5.2791   54.9894 H       1  ZINC000561219098    0.1200
     40 H40       -11.7358   -5.0775   57.2382 H       1  ZINC000561219098    0.1600
     41 H41       -10.7892   -0.8309   59.5520 H       1  ZINC000561219098    0.1600
     42 H42       -11.3354   -3.5703   54.8026 H       1  ZINC000561219098    0.0900
     43 H43       -11.7046   -1.8266   54.7699 H       1  ZINC000561219098    0.1100
     44 H44       -10.2970   -1.6372   51.7907 H       1  ZINC000561219098    0.1600
     45 H45        -8.1530   -0.6456   51.1061 H       1  ZINC000561219098    0.1700
@<TRIPOS>BOND
     1     1     2    1
     2     1    30    1
     3     1    31    1
     4     1    32    1
     5     2    29    1
     6     2     3    1
     7     3     4    2
     8     3    33    1
     9     4     5    1
    10     4    34    1
    11     5     6    1
    12     5    29    2
    13     6    28    1
    14     6     7    2
    15     7     8    1
    16     8     9    1
    17     8    35    1
    18     9    10    1
    19     9    28    2
    20    10    11    2
    21    10    12   am
    22    12    27    1
    23    12    13    1
    24    13    14    1
    25    13    36    1
    26    13    37    1
    27    14    15    1
    28    14    38    1
    29    14    39    1
    30    15    16    1
    31    16    17    1
    32    16    18    1
    33    16    27    1
    34    18    25   ar
    35    18    19   ar
    36    19    20   ar
    37    19    40    1
    38    20    21    1
    39    20    22   ar
    40    22    23    1
    41    22    24   ar
    42    24    25   ar
    43    24    41    1
    44    25    26    1
    45    27    42    1
    46    27    43    1
    47    28    44    1
    48    29    45    1
@<TRIPOS>SUBSTRUCTURE
     1 ZINC000561219098        1 TEMP              0 ****  ****    0 ROOT


##########                                Name:    ZINC001162683355
##########                DOCK_Rotatable_Bonds:                   5
##########                         Heavy_Atoms:                  25
##########                    Molecular_Weight:             336.437
##########                DOCK_Rotatable_Bonds:                   5
##########                       Formal_Charge:          -0.0100002
##########                     HBond_Acceptors:                   5
##########                        HBond_Donors:                   1
##########                         Heavy_Atoms:                  25
##########                          Grid_Score:          -31.004253
##########                     Grid_vdw_energy:          -29.984444
##########                      Grid_es_energy:           -1.019809
##########           Internal_energy_repulsive:           12.148124

@<TRIPOS>MOLECULE
ZINC001162683355
 49 52 1 0 0
SMALL
USER_CHARGES


@<TRIPOS>ATOM
      1 C1        -12.1505   -3.4819   54.4015 C.3     1  ZINC001162683355    0.0200
      2 N2        -12.7570   -4.2665   55.4853 N.3     1  ZINC001162683355   -0.5400
      3 C3        -13.8081   -5.1547   54.9681 C.3     1  ZINC001162683355    0.0100
      4 C4        -14.3705   -5.9945   56.1181 C.3     1  ZINC001162683355    0.0600
      5 O5        -14.8536   -5.1245   57.1453 O.3     1  ZINC001162683355   -0.3800
      6 C6        -13.8558   -4.2459   57.6721 C.3     1  ZINC001162683355    0.0800
      7 H7        -13.0546   -4.8328   58.1214 H       1  ZINC001162683355    0.0700
      8 C8        -14.4821   -3.3395   58.7336 C.3     1  ZINC001162683355    0.1500
      9 N9        -13.4708   -2.4074   59.2384 N.pl3   1  ZINC001162683355   -0.7300
     10 C10       -13.6349   -1.8109   60.4837 C.ar    1  ZINC001162683355    0.4300
     11 C11       -12.5189   -1.3643   61.1952 C.ar    1  ZINC001162683355   -0.0100
     12 C12       -12.7208   -0.7652   62.4520 C.ar    1  ZINC001162683355   -0.0400
     13 C13       -14.0300   -0.6416   62.9362 C.ar    1  ZINC001162683355   -0.1800
     14 C14       -15.0611   -1.1063   62.1727 C.ar    1  ZINC001162683355    0.1000
     15 N15       -14.8475   -1.6671   60.9922 N.ar    1  ZINC001162683355   -0.5400
     16 C16       -11.3956   -0.4057   62.9478 C.2     1  ZINC001162683355   -0.2200
     17 C17       -10.5087   -0.7928   62.0137 C.2     1  ZINC001162683355    0.0800
     18 N18       -11.1631   -1.3619   60.9586 N.pl3   1  ZINC001162683355   -0.4600
     19 C19       -10.5175   -1.8958   59.7567 C.3     1  ZINC001162683355    0.1500
     20 C20       -10.4300   -0.8142   58.7110 C.ar    1  ZINC001162683355   -0.1100
     21 C21       -10.2022   -1.1479   57.3890 C.ar    1  ZINC001162683355   -0.1000
     22 C22       -10.1263   -0.1561   56.4290 C.ar    1  ZINC001162683355   -0.1200
     23 C23       -10.2690    1.1699   56.7925 C.ar    1  ZINC001162683355   -0.1100
     24 C24       -10.4915    1.5040   58.1154 C.ar    1  ZINC001162683355   -0.1200
     25 C25       -10.5718    0.5118   59.0746 C.ar    1  ZINC001162683355   -0.1000
     26 C26       -13.2882   -3.3884   56.5378 C.3     1  ZINC001162683355    0.0300
     27 H27       -12.9013   -2.8220   53.9667 H       1  ZINC001162683355    0.0300
     28 H28       -11.3297   -2.8856   54.7999 H       1  ZINC001162683355    0.0700
     29 H29       -11.7706   -4.1559   53.6336 H       1  ZINC001162683355    0.0700
     30 H30       -13.3870   -5.8133   54.2085 H       1  ZINC001162683355    0.0900
     31 H31       -14.6070   -4.5565   54.5299 H       1  ZINC001162683355    0.0500
     32 H32       -13.5839   -6.6323   56.5215 H       1  ZINC001162683355    0.0600
     33 H33       -15.1888   -6.6140   55.7510 H       1  ZINC001162683355    0.1000
     34 H34       -14.8573   -3.9487   59.5560 H       1  ZINC001162683355    0.0700
     35 H35       -15.3056   -2.7781   58.2922 H       1  ZINC001162683355    0.0800
     36 H36       -12.6869   -2.2063   58.7037 H       1  ZINC001162683355    0.4000
     37 H37       -14.2197   -0.1862   63.8969 H       1  ZINC001162683355    0.1300
     38 H38       -16.0730   -1.0144   62.5388 H       1  ZINC001162683355    0.1500
     39 H39       -11.1700    0.0752   63.8881 H       1  ZINC001162683355    0.1500
     40 H40        -9.4382   -0.6696   62.0861 H       1  ZINC001162683355    0.1700
     41 H41       -11.1035   -2.7293   59.3693 H       1  ZINC001162683355    0.0900
     42 H42        -9.5146   -2.2419   60.0064 H       1  ZINC001162683355    0.0900
     43 H43       -10.0870   -2.1837   57.1055 H       1  ZINC001162683355    0.1200
     44 H44        -9.9528   -0.4170   55.3955 H       1  ZINC001162683355    0.1300
     45 H45       -10.2070    1.9450   56.0429 H       1  ZINC001162683355    0.1300
     46 H46       -10.6030    2.5400   58.3993 H       1  ZINC001162683355    0.1300
     47 H47       -10.7456    0.7728   60.1081 H       1  ZINC001162683355    0.1200
     48 H48       -14.0787   -2.7619   56.1246 H       1  ZINC001162683355    0.0500
     49 H49       -12.4875   -2.7576   56.9241 H       1  ZINC001162683355    0.0900
@<TRIPOS>BOND
     1     1     2    1
     2     1    27    1
     3     1    28    1
     4     1    29    1
     5     2    26    1
     6     2     3    1
     7     3     4    1
     8     3    30    1
     9     3    31    1
    10     4     5    1
    11     4    32    1
    12     4    33    1
    13     5     6    1
    14     6     7    1
    15     6     8    1
    16     6    26    1
    17     8     9    1
    18     8    34    1
    19     8    35    1
    20     9    10    1
    21     9    36    1
    22    10    15   ar
    23    10    11   ar
    24    11    18    1
    25    11    12   ar
    26    12    13   ar
    27    12    16    1
    28    13    14   ar
    29    13    37    1
    30    14    15   ar
    31    14    38    1
    32    16    17    2
    33    16    39    1
    34    17    18    1
    35    17    40    1
    36    18    19    1
    37    19    20    1
    38    19    41    1
    39    19    42    1
    40    20    25   ar
    41    20    21   ar
    42    21    22   ar
    43    21    43    1
    44    22    23   ar
    45    22    44    1
    46    23    24   ar
    47    23    45    1
    48    24    25   ar
    49    24    46    1
    50    25    47    1
    51    26    48    1
    52    26    49    1
@<TRIPOS>SUBSTRUCTURE
     1 ZINC001162683355        1 TEMP              0 ****  ****    0 ROOT


##########                                Name:    ZINC000965273005
##########                DOCK_Rotatable_Bonds:                   7
##########                         Heavy_Atoms:                  27
##########                    Molecular_Weight:             368.436
##########                DOCK_Rotatable_Bonds:                   7
##########                       Formal_Charge:           0.0100003
##########                     HBond_Acceptors:                   7
##########                        HBond_Donors:                   2
##########                         Heavy_Atoms:                  27
##########                          Grid_Score:          -30.997213
##########                     Grid_vdw_energy:          -29.119240
##########                      Grid_es_energy:           -1.877974
##########           Internal_energy_repulsive:           19.736666

@<TRIPOS>MOLECULE
ZINC000965273005
 51 54 1 0 0
SMALL
USER_CHARGES


@<TRIPOS>ATOM
      1 C1        -12.2062   -4.5508   57.5411 C.3     1  ZINC000965273005   -0.1200
      2 C2        -13.4953   -3.8494   57.1989 C.ar    1  ZINC000965273005   -0.0300
      3 C3        -14.6939   -4.3310   57.6828 C.ar    1  ZINC000965273005   -0.1200
      4 C4        -15.8785   -3.6882   57.3695 C.ar    1  ZINC000965273005   -0.0900
      5 C5        -15.8695   -2.5591   56.5703 C.ar    1  ZINC000965273005   -0.1300
      6 C6        -14.6775   -2.0668   56.0797 C.ar    1  ZINC000965273005   -0.0900
      7 C7        -13.4786   -2.7074   56.3962 C.ar    1  ZINC000965273005   -0.1300
      8 C8        -12.1976   -2.1855   55.8741 C.2     1  ZINC000965273005    0.5800
      9 O9        -11.4675   -2.9072   55.2234 O.2     1  ZINC000965273005   -0.5200
     10 N10       -11.8397   -0.9096   56.1196 N.am    1  ZINC000965273005   -0.6100
     11 C11       -12.6233    0.0683   56.8962 C.3     1  ZINC000965273005    0.0900
     12 C12       -11.5817    1.0944   57.4079 C.3     1  ZINC000965273005    0.1500
     13 H13       -12.0484    2.0595   57.6053 H       1  ZINC000965273005    0.1200
     14 N14       -10.8931    0.5937   58.6002 N.am    1  ZINC000965273005   -0.7100
     15 C15       -11.5429    0.5370   59.7796 C.2     1  ZINC000965273005    0.6000
     16 O16       -12.7002    0.9029   59.8546 O.2     1  ZINC000965273005   -0.5400
     17 C17       -10.8505    0.0315   60.9791 C.2     1  ZINC000965273005   -0.2800
     18 C18       -10.5130    0.7633   62.0998 C.2     1  ZINC000965273005    0.1000
     19 N19        -9.8980   -0.0704   62.9539 N.pl3   1  ZINC000965273005   -0.3600
     20 C20        -9.3726    0.2901   64.2731 C.3     1  ZINC000965273005    0.1000
     21 N21        -9.8442   -1.3417   62.3718 N.2     1  ZINC000965273005   -0.3000
     22 C22       -10.4134   -1.2940   61.1991 C.2     1  ZINC000965273005    0.1700
     23 C23       -10.5685   -2.4478   60.2423 C.3     1  ZINC000965273005   -0.0800
     24 C24        -9.5624   -2.5538   59.0944 C.3     1  ZINC000965273005   -0.1700
     25 C25        -9.4921   -3.5350   60.2662 C.3     1  ZINC000965273005   -0.1600
     26 C26       -10.6116    1.1822   56.2002 C.3     1  ZINC000965273005    0.0900
     27 H27       -10.9930    1.8735   55.4487 H       1  ZINC000965273005    0.0900
     28 O28        -9.3056    1.5736   56.6281 O.3     1  ZINC000965273005   -0.5500
     29 C29       -10.6001   -0.2643   55.6630 C.3     1  ZINC000965273005    0.0600
     30 H30       -11.7490   -4.0694   58.4056 H       1  ZINC000965273005    0.0800
     31 H31       -12.4115   -5.5957   57.7734 H       1  ZINC000965273005    0.0700
     32 H32       -11.5253   -4.4945   56.6917 H       1  ZINC000965273005    0.0700
     33 H33       -14.7077   -5.2121   58.3073 H       1  ZINC000965273005    0.1300
     34 H34       -16.8142   -4.0698   57.7504 H       1  ZINC000965273005    0.1300
     35 H35       -16.7976   -2.0619   56.3295 H       1  ZINC000965273005    0.1300
     36 H36       -14.6718   -1.1855   55.4555 H       1  ZINC000965273005    0.1300
     37 H37       -13.3574    0.5593   56.2575 H       1  ZINC000965273005    0.0900
     38 H38       -13.1169   -0.4218   57.7355 H       1  ZINC000965273005    0.0900
     39 H39        -9.9696    0.3031   58.5407 H       1  ZINC000965273005    0.4000
     40 H40       -10.7073    1.8135   62.2600 H       1  ZINC000965273005    0.1800
     41 H41       -10.1484    0.1462   65.0250 H       1  ZINC000965273005    0.0800
     42 H42        -8.5167   -0.3425   64.5085 H       1  ZINC000965273005    0.1000
     43 H43        -9.0615    1.3347   64.2671 H       1  ZINC000965273005    0.0900
     44 H44       -11.5939   -2.7593   60.0435 H       1  ZINC000965273005    0.1400
     45 H45        -9.9259   -2.9349   58.1400 H       1  ZINC000965273005    0.1000
     46 H46        -8.7883   -1.7889   59.0314 H       1  ZINC000965273005    0.1000
     47 H47        -8.6719   -3.4156   60.9741 H       1  ZINC000965273005    0.0900
     48 H48        -9.8095   -4.5615   60.0828 H       1  ZINC000965273005    0.1000
     49 H49        -9.1314    2.5210   56.5433 H       1  ZINC000965273005    0.3900
     50 H50        -9.7332   -0.7977   56.0530 H       1  ZINC000965273005    0.0800
     51 H51       -10.5727   -0.2549   54.5733 H       1  ZINC000965273005    0.0800
@<TRIPOS>BOND
     1     1     2    1
     2     1    30    1
     3     1    31    1
     4     1    32    1
     5     2     7   ar
     6     2     3   ar
     7     3     4   ar
     8     3    33    1
     9     4     5   ar
    10     4    34    1
    11     5     6   ar
    12     5    35    1
    13     6     7   ar
    14     6    36    1
    15     7     8    1
    16     8     9    2
    17     8    10   am
    18    10    29    1
    19    10    11    1
    20    11    12    1
    21    11    37    1
    22    11    38    1
    23    12    13    1
    24    12    14    1
    25    12    26    1
    26    14    15   am
    27    14    39    1
    28    15    16    2
    29    15    17    1
    30    17    22    1
    31    17    18    2
    32    18    19    1
    33    18    40    1
    34    19    20    1
    35    19    21    1
    36    20    41    1
    37    20    42    1
    38    20    43    1
    39    21    22    2
    40    22    23    1
    41    23    25    1
    42    23    24    1
    43    23    44    1
    44    24    25    1
    45    24    45    1
    46    24    46    1
    47    25    47    1
    48    25    48    1
    49    26    27    1
    50    26    28    1
    51    26    29    1
    52    28    49    1
    53    29    50    1
    54    29    51    1
@<TRIPOS>SUBSTRUCTURE
     1 ZINC000965273005        1 TEMP              0 ****  ****    0 ROOT


##########                                Name:    ZINC001356153960
##########                DOCK_Rotatable_Bonds:                   8
##########                         Heavy_Atoms:                  24
##########                    Molecular_Weight:             334.366
##########                DOCK_Rotatable_Bonds:                   8
##########                       Formal_Charge:           0.0100003
##########                     HBond_Acceptors:                   6
##########                        HBond_Donors:                   1
##########                         Heavy_Atoms:                  24
##########                          Grid_Score:          -30.992462
##########                     Grid_vdw_energy:          -31.200562
##########                      Grid_es_energy:            0.208099
##########           Internal_energy_repulsive:           11.288571

@<TRIPOS>MOLECULE
ZINC001356153960
 44 46 1 0 0
SMALL
USER_CHARGES


@<TRIPOS>ATOM
      1 O1        -11.7253   -3.6464   52.7489 O.2     1  ZINC001356153960   -0.5200
      2 C2        -11.8988   -2.6975   53.4852 C.2     1  ZINC001356153960    0.5100
      3 N3        -11.1130   -1.6078   53.3765 N.am    1  ZINC001356153960   -0.7000
      4 C4        -10.0536   -1.5666   52.3655 C.3     1  ZINC001356153960    0.1300
      5 C5         -9.1670   -0.3429   52.6054 C.3     1  ZINC001356153960   -0.0800
      6 H6         -8.7723   -0.3542   53.6213 H       1  ZINC001356153960    0.0900
      7 C7         -8.0377   -0.3062   51.6022 C.2     1  ZINC001356153960   -0.1700
      8 C8         -7.8812    0.8942   51.1143 C.2     1  ZINC001356153960   -0.1600
      9 C9         -8.8800    1.8584   51.7109 C.3     1  ZINC001356153960   -0.1000
     10 C10        -9.9640    0.9578   52.3518 C.3     1  ZINC001356153960   -0.1200
     11 C11       -12.9795   -2.7396   54.5165 C.2     1  ZINC001356153960    0.5100
     12 O12       -14.0757   -2.2837   54.2655 O.2     1  ZINC001356153960   -0.5100
     13 N13       -12.7365   -3.2838   55.7253 N.am    1  ZINC001356153960   -0.5500
     14 C14       -11.4131   -3.8342   56.0283 C.3     1  ZINC001356153960    0.1300
     15 C15       -10.9123   -3.2531   57.3253 C.ar    1  ZINC001356153960   -0.1600
     16 C16       -10.7689   -1.8853   57.4597 C.ar    1  ZINC001356153960   -0.0300
     17 C17       -10.3150   -1.3505   58.6508 C.ar    1  ZINC001356153960   -0.1700
     18 C18        -9.9926   -2.1857   59.7069 C.ar    1  ZINC001356153960    0.1400
     19 F19        -9.5441   -1.6632   60.8692 F       1  ZINC001356153960   -0.1300
     20 C20       -10.1304   -3.5567   59.5716 C.ar    1  ZINC001356153960   -0.2000
     21 C21       -10.5904   -4.0906   58.3805 C.ar    1  ZINC001356153960    0.1500
     22 F22       -10.7250   -5.4282   58.2469 F       1  ZINC001356153960   -0.1200
     23 C23       -13.7959   -3.3249   56.7365 C.3     1  ZINC001356153960    0.0700
     24 C24       -14.0157   -4.6463   57.4759 C.3     1  ZINC001356153960   -0.1900
     25 C25       -15.0310   -4.1750   56.4316 C.3     1  ZINC001356153960   -0.1800
     26 H26       -11.2490   -0.8510   53.9676 H       1  ZINC001356153960    0.4100
     27 H27        -9.4501   -2.4717   52.4345 H       1  ZINC001356153960    0.0800
     28 H28       -10.5004   -1.5027   51.3733 H       1  ZINC001356153960    0.0800
     29 H29        -7.4390   -1.1613   51.3249 H       1  ZINC001356153960    0.1200
     30 H30        -7.1359    1.1631   50.3805 H       1  ZINC001356153960    0.1300
     31 H31        -8.4035    2.4763   52.4719 H       1  ZINC001356153960    0.0800
     32 H32        -9.3151    2.4847   50.9320 H       1  ZINC001356153960    0.0700
     33 H33       -10.7872    0.7834   51.6589 H       1  ZINC001356153960    0.0800
     34 H34       -10.3260    1.3837   53.2876 H       1  ZINC001356153960    0.0800
     35 H35       -11.4823   -4.9182   56.1185 H       1  ZINC001356153960    0.0900
     36 H36       -10.7213   -3.5799   55.2251 H       1  ZINC001356153960    0.1400
     37 H37       -11.0155   -1.2333   56.6348 H       1  ZINC001356153960    0.1600
     38 H38       -10.2071   -0.2811   58.7560 H       1  ZINC001356153960    0.1400
     39 H39        -9.8790   -4.2089   60.3947 H       1  ZINC001356153960    0.1500
     40 H40       -13.9456   -2.4029   57.2982 H       1  ZINC001356153960    0.1400
     41 H41       -13.3723   -5.4850   57.2100 H       1  ZINC001356153960    0.1400
     42 H42       -14.3106   -4.5935   58.5239 H       1  ZINC001356153960    0.0900
     43 H43       -15.9932   -3.8123   56.7931 H       1  ZINC001356153960    0.1000
     44 H44       -15.0553   -4.7036   55.4786 H       1  ZINC001356153960    0.0900
@<TRIPOS>BOND
     1     1     2    2
     2     2     3   am
     3     2    11    1
     4     3     4    1
     5     3    26    1
     6     4     5    1
     7     4    27    1
     8     4    28    1
     9     5     6    1
    10     5    10    1
    11     5     7    1
    12     7     8    2
    13     7    29    1
    14     8     9    1
    15     8    30    1
    16     9    10    1
    17     9    31    1
    18     9    32    1
    19    10    33    1
    20    10    34    1
    21    11    12    2
    22    11    13   am
    23    13    14    1
    24    13    23    1
    25    14    15    1
    26    14    35    1
    27    14    36    1
    28    15    21   ar
    29    15    16   ar
    30    16    17   ar
    31    16    37    1
    32    17    18   ar
    33    17    38    1
    34    18    19    1
    35    18    20   ar
    36    20    21   ar
    37    20    39    1
    38    21    22    1
    39    23    25    1
    40    23    24    1
    41    23    40    1
    42    24    25    1
    43    24    41    1
    44    24    42    1
    45    25    43    1
    46    25    44    1
@<TRIPOS>SUBSTRUCTURE
     1 ZINC001356153960        1 TEMP              0 ****  ****    0 ROOT


##########                                Name:    ZINC001272744746
##########                DOCK_Rotatable_Bonds:                   6
##########                         Heavy_Atoms:                  25
##########                    Molecular_Weight:             348.417
##########                DOCK_Rotatable_Bonds:                   6
##########                       Formal_Charge:           0.0299999
##########                     HBond_Acceptors:                   6
##########                        HBond_Donors:                   1
##########                         Heavy_Atoms:                  25
##########                          Grid_Score:          -30.977385
##########                     Grid_vdw_energy:          -30.503935
##########                      Grid_es_energy:           -0.473449
##########           Internal_energy_repulsive:           23.115957

@<TRIPOS>MOLECULE
ZINC001272744746
 50 52 1 0 0
SMALL
USER_CHARGES


@<TRIPOS>ATOM
      1 C1         -9.6531   -1.6676   61.9720 C.2     1  ZINC001272744746   -0.1700
      2 C2        -10.5072   -2.0441   61.0529 C.2     1  ZINC001272744746   -0.1700
      3 C3        -10.0131   -2.4718   59.6949 C.3     1  ZINC001272744746    0.1500
      4 N4        -11.0987   -2.3479   58.7190 N.am    1  ZINC001272744746   -0.6100
      5 C5        -12.1987   -3.3111   58.5759 C.3     1  ZINC001272744746    0.0700
      6 C6        -13.2787   -2.5778   57.7621 C.3     1  ZINC001272744746    0.1100
      7 C7        -12.4583   -1.5262   56.9931 C.3     1  ZINC001272744746   -0.1500
      8 C8        -11.2195   -1.3348   57.8426 C.2     1  ZINC001272744746    0.5200
      9 O9        -10.4447   -0.4072   57.7423 O.2     1  ZINC001272744746   -0.5200
     10 C10       -14.2802   -1.9018   58.6881 C.3     1  ZINC001272744746   -0.1000
     11 C11       -15.0659   -2.9715   59.4544 C.3     1  ZINC001272744746   -0.1200
     12 C12       -15.7350   -3.9151   58.4511 C.3     1  ZINC001272744746   -0.1200
     13 C13       -14.6661   -4.5493   57.5584 C.3     1  ZINC001272744746    0.0500
     14 N14       -13.9404   -3.4936   56.8377 N.3     1  ZINC001272744746   -0.5100
     15 C15       -12.9785   -4.0698   55.8886 C.3     1  ZINC001272744746    0.0800
     16 C16       -13.2884   -3.5776   54.4984 C.ar    1  ZINC001272744746   -0.0200
     17 C17       -14.5994   -3.5174   54.0646 C.ar    1  ZINC001272744746   -0.1700
     18 C18       -14.8888   -3.0660   52.7880 C.ar    1  ZINC001272744746    0.1200
     19 F19       -16.1709   -3.0080   52.3661 F       1  ZINC001272744746   -0.1200
     20 C20       -13.8616   -2.6728   51.9428 C.ar    1  ZINC001272744746    0.0400
     21 O21       -14.1433   -2.2283   50.6883 O.3     1  ZINC001272744746   -0.4700
     22 C22       -12.5429   -2.7335   52.3812 C.ar    1  ZINC001272744746    0.1300
     23 O23       -11.5325   -2.3487   51.5564 O.3     1  ZINC001272744746   -0.3000
     24 C24       -10.2279   -2.2493   52.1312 C.3     1  ZINC001272744746    0.0200
     25 C25       -12.2611   -3.1819   53.6618 C.ar    1  ZINC001272744746   -0.1800
     26 H26        -8.5947   -1.6637   61.7566 H       1  ZINC001272744746    0.1000
     27 H27       -10.0074   -1.3569   62.9437 H       1  ZINC001272744746    0.1000
     28 H28       -11.5655   -2.0480   61.2682 H       1  ZINC001272744746    0.1100
     29 H29        -9.1802   -1.8362   59.3945 H       1  ZINC001272744746    0.0900
     30 H30        -9.6810   -3.5091   59.7392 H       1  ZINC001272744746    0.0800
     31 H31       -11.8580   -4.1967   58.0397 H       1  ZINC001272744746    0.0700
     32 H32       -12.5877   -3.5885   59.5557 H       1  ZINC001272744746    0.0900
     33 H33       -12.1935   -1.8975   56.0030 H       1  ZINC001272744746    0.1100
     34 H34       -13.0129   -0.5910   56.9155 H       1  ZINC001272744746    0.1100
     35 H35       -13.7491   -1.2645   59.3951 H       1  ZINC001272744746    0.0700
     36 H36       -14.9693   -1.2967   58.0991 H       1  ZINC001272744746    0.0800
     37 H37       -14.3854   -3.5383   60.0901 H       1  ZINC001272744746    0.0600
     38 H38       -15.8281   -2.4933   60.0696 H       1  ZINC001272744746    0.0700
     39 H39       -16.2703   -4.6976   58.9891 H       1  ZINC001272744746    0.0700
     40 H40       -16.4363   -3.3525   57.8348 H       1  ZINC001272744746    0.0700
     41 H41       -13.9671   -5.1150   58.1744 H       1  ZINC001272744746    0.0400
     42 H42       -15.1416   -5.2180   56.8410 H       1  ZINC001272744746    0.0900
     43 H43       -11.9689   -3.7658   56.1650 H       1  ZINC001272744746    0.1000
     44 H44       -13.0503   -5.1571   55.9135 H       1  ZINC001272744746    0.0600
     45 H45       -15.3994   -3.8236   54.7223 H       1  ZINC001272744746    0.1400
     46 H46       -13.3752   -2.1927   50.1019 H       1  ZINC001272744746    0.3900
     47 H47        -9.9299   -3.2206   52.5261 H       1  ZINC001272744746    0.0600
     48 H48        -9.5172   -1.9341   51.3672 H       1  ZINC001272744746    0.1100
     49 H49       -10.2415   -1.5175   52.9388 H       1  ZINC001272744746    0.0600
     50 H50       -11.2378   -3.2298   54.0039 H       1  ZINC001272744746    0.1400
@<TRIPOS>BOND
     1     1     2    2
     2     1    26    1
     3     1    27    1
     4     2     3    1
     5     2    28    1
     6     3     4    1
     7     3    29    1
     8     3    30    1
     9     4     8   am
    10     4     5    1
    11     5     6    1
    12     5    31    1
    13     5    32    1
    14     6    14    1
    15     6     7    1
    16     6    10    1
    17     7     8    1
    18     7    33    1
    19     7    34    1
    20     8     9    2
    21    10    11    1
    22    10    35    1
    23    10    36    1
    24    11    12    1
    25    11    37    1
    26    11    38    1
    27    12    13    1
    28    12    39    1
    29    12    40    1
    30    13    14    1
    31    13    41    1
    32    13    42    1
    33    14    15    1
    34    15    16    1
    35    15    43    1
    36    15    44    1
    37    16    25   ar
    38    16    17   ar
    39    17    18   ar
    40    17    45    1
    41    18    19    1
    42    18    20   ar
    43    20    21    1
    44    20    22   ar
    45    21    46    1
    46    22    23    1
    47    22    25   ar
    48    23    24    1
    49    24    47    1
    50    24    48    1
    51    24    49    1
    52    25    50    1
@<TRIPOS>SUBSTRUCTURE
     1 ZINC001272744746        1 TEMP              0 ****  ****    0 ROOT


##########                                Name:    ZINC000863216249
##########                DOCK_Rotatable_Bonds:                   5
##########                         Heavy_Atoms:                  23
##########                    Molecular_Weight:             396.351
##########                DOCK_Rotatable_Bonds:                   5
##########                       Formal_Charge:         -0.00999944
##########                     HBond_Acceptors:                   5
##########                        HBond_Donors:                   1
##########                         Heavy_Atoms:                  23
##########                          Grid_Score:          -30.961882
##########                     Grid_vdw_energy:          -29.303690
##########                      Grid_es_energy:           -1.658192
##########           Internal_energy_repulsive:           26.168625

@<TRIPOS>MOLECULE
ZINC000863216249
 45 48 1 0 0
SMALL
USER_CHARGES


@<TRIPOS>ATOM
      1 S1        -16.1553   -0.4760   60.7007 S.2     1  ZINC000863216249   -0.5900
      2 C2        -14.7041   -1.3263   60.3814 C.2     1  ZINC000863216249    0.5600
      3 N3        -14.7003   -2.3454   59.4993 N.am    1  ZINC000863216249   -0.6800
      4 C4        -15.9392   -2.7293   58.8183 C.3     1  ZINC000863216249    0.1200
      5 C5        -15.8373   -4.1844   58.3564 C.3     1  ZINC000863216249    0.0400
      6 N6        -14.6956   -4.3294   57.4434 N.3     1  ZINC000863216249   -0.5300
      7 C7        -14.8662   -3.4897   56.2488 C.3     1  ZINC000863216249    0.0000
      8 C8        -13.6302   -3.6253   55.3556 C.3     1  ZINC000863216249    0.0600
      9 O9        -13.4355   -5.0031   55.0256 O.3     1  ZINC000863216249   -0.3800
     10 C10       -13.2653   -5.8497   56.1656 C.3     1  ZINC000863216249    0.0600
     11 C11       -14.4975   -5.7367   57.0671 C.3     1  ZINC000863216249    0.0200
     12 N12       -13.5643   -0.9730   61.0079 N.am    1  ZINC000863216249   -0.5100
     13 C13       -13.4437    0.1151   61.9847 C.3     1  ZINC000863216249    0.1200
     14 C14       -11.9686    0.1119   62.3981 C.3     1  ZINC000863216249   -0.1100
     15 C15       -11.2201    1.4056   62.6946 C.3     1  ZINC000863216249   -0.1500
     16 C16       -11.5393    0.4247   63.8263 C.3     1  ZINC000863216249   -0.1500
     17 C17       -11.3385   -1.0053   61.6073 C.ar    1  ZINC000863216249   -0.0700
     18 C18       -10.0401   -1.4754   61.5655 C.ar    1  ZINC000863216249   -0.0800
     19 C19        -9.7097   -2.5343   60.7405 C.ar    1  ZINC000863216249   -0.1000
     20 C20       -10.6835   -3.1244   59.9548 C.ar    1  ZINC000863216249   -0.0700
     21 Br21      -10.2341   -4.5734   58.8259 Br      1  ZINC000863216249   -0.0400
     22 C22       -11.9816   -2.6587   59.9928 C.ar    1  ZINC000863216249   -0.0900
     23 C23       -12.3240   -1.5937   60.8268 C.ar    1  ZINC000863216249    0.1400
     24 H24       -13.8771   -2.8246   59.3155 H       1  ZINC000863216249    0.4000
     25 H25       -16.7790   -2.6241   59.5051 H       1  ZINC000863216249    0.0900
     26 H26       -16.0938   -2.0837   57.9539 H       1  ZINC000863216249    0.1000
     27 H27       -15.6948   -4.8312   59.2220 H       1  ZINC000863216249    0.0900
     28 H28       -16.7543   -4.4664   57.8391 H       1  ZINC000863216249    0.0400
     29 H29       -15.7498   -3.8141   55.6992 H       1  ZINC000863216249    0.0500
     30 H30       -14.9856   -2.4489   56.5496 H       1  ZINC000863216249    0.1000
     31 H31       -13.7766   -3.0493   54.4419 H       1  ZINC000863216249    0.1000
     32 H32       -12.7548   -3.2508   55.8862 H       1  ZINC000863216249    0.0600
     33 H33       -13.1476   -6.8825   55.8377 H       1  ZINC000863216249    0.1000
     34 H34       -12.3793   -5.5399   56.7198 H       1  ZINC000863216249    0.0600
     35 H35       -14.3478   -6.3361   57.9650 H       1  ZINC000863216249    0.0900
     36 H36       -15.3753   -6.0970   56.5305 H       1  ZINC000863216249    0.0500
     37 H37       -13.7066    1.0680   61.5254 H       1  ZINC000863216249    0.0900
     38 H38       -14.0797   -0.0787   62.8485 H       1  ZINC000863216249    0.0900
     39 H39       -10.1833    1.4744   62.3653 H       1  ZINC000863216249    0.1100
     40 H40       -11.7879    2.3354   62.6591 H       1  ZINC000863216249    0.1100
     41 H41       -12.3171    0.7093   64.5350 H       1  ZINC000863216249    0.1100
     42 H42       -10.7125   -0.1517   64.2412 H       1  ZINC000863216249    0.1100
     43 H43        -9.2806   -1.0138   62.1790 H       1  ZINC000863216249    0.1400
     44 H44        -8.6939   -2.8998   60.7093 H       1  ZINC000863216249    0.1400
     45 H45       -12.7374   -3.1234   59.3767 H       1  ZINC000863216249    0.1900
@<TRIPOS>BOND
     1     1     2    2
     2     2     3   am
     3     2    12   am
     4     3     4    1
     5     3    24    1
     6     4     5    1
     7     4    25    1
     8     4    26    1
     9     5     6    1
    10     5    27    1
    11     5    28    1
    12     6    11    1
    13     6     7    1
    14     7     8    1
    15     7    29    1
    16     7    30    1
    17     8     9    1
    18     8    31    1
    19     8    32    1
    20     9    10    1
    21    10    11    1
    22    10    33    1
    23    10    34    1
    24    11    35    1
    25    11    36    1
    26    12    23    1
    27    12    13    1
    28    13    14    1
    29    13    37    1
    30    13    38    1
    31    14    16    1
    32    14    15    1
    33    14    17    1
    34    15    16    1
    35    15    39    1
    36    15    40    1
    37    16    41    1
    38    16    42    1
    39    17    23   ar
    40    17    18   ar
    41    18    19   ar
    42    18    43    1
    43    19    20   ar
    44    19    44    1
    45    20    21    1
    46    20    22   ar
    47    22    23   ar
    48    22    45    1
@<TRIPOS>SUBSTRUCTURE
     1 ZINC000863216249        1 TEMP              0 ****  ****    0 ROOT


##########                                Name:    ZINC001456096501
##########                DOCK_Rotatable_Bonds:                   7
##########                         Heavy_Atoms:                  24
##########                    Molecular_Weight:             333.431
##########                DOCK_Rotatable_Bonds:                   7
##########                       Formal_Charge:          -0.0200003
##########                     HBond_Acceptors:                   6
##########                        HBond_Donors:                   0
##########                         Heavy_Atoms:                  24
##########                          Grid_Score:          -30.925535
##########                     Grid_vdw_energy:          -29.860180
##########                      Grid_es_energy:           -1.065355
##########           Internal_energy_repulsive:          127.171608

@<TRIPOS>MOLECULE
ZINC001456096501
 51 52 1 0 0
SMALL
USER_CHARGES


@<TRIPOS>ATOM
      1 C1        -11.4135   -3.4364   53.6505 C.3     1  ZINC001456096501    0.0400
      2 O2        -11.4504   -4.1027   54.9141 O.3     1  ZINC001456096501   -0.2900
      3 C3        -12.6378   -4.1208   55.5651 C.ar    1  ZINC001456096501    0.3700
      4 N4        -13.7506   -3.8368   54.9102 N.ar    1  ZINC001456096501   -0.5400
      5 C5        -14.9281   -3.8431   55.5049 C.ar    1  ZINC001456096501    0.1600
      6 C6        -15.0504   -4.1489   56.8482 C.ar    1  ZINC001456096501   -0.2200
      7 C7        -13.9178   -4.4539   57.5825 C.ar    1  ZINC001456096501   -0.0200
      8 C8        -12.6802   -4.4463   56.9294 C.ar    1  ZINC001456096501   -0.2000
      9 C9        -11.4412   -4.7646   57.6642 C.2     1  ZINC001456096501    0.5900
     10 O10       -10.8980   -5.8402   57.5030 O.2     1  ZINC001456096501   -0.5100
     11 N11       -10.9114   -3.8627   58.5143 N.am    1  ZINC001456096501   -0.6200
     12 C12        -9.6871   -4.0484   59.3069 C.3     1  ZINC001456096501    0.1000
     13 C13        -9.4871   -2.7697   60.1473 C.3     1  ZINC001456096501   -0.1200
     14 C14       -10.9149   -2.1654   60.2058 C.3     1  ZINC001456096501   -0.1200
     15 H15       -11.5071   -2.6373   60.9898 H       1  ZINC001456096501    0.0900
     16 C16       -10.8609   -0.6488   60.4009 C.3     1  ZINC001456096501    0.1200
     17 N17       -11.8577   -0.2489   61.3973 N.am    1  ZINC001456096501   -0.6200
     18 C18       -11.4792   -0.1378   62.8082 C.3     1  ZINC001456096501    0.0600
     19 C19       -13.1227    0.0169   61.0160 C.2     1  ZINC001456096501    0.5200
     20 O20       -13.4360   -0.0750   59.8480 O.2     1  ZINC001456096501   -0.5300
     21 C21       -14.1480    0.4283   62.0410 C.3     1  ZINC001456096501   -0.0800
     22 C22       -14.5285   -0.7822   62.8959 C.3     1  ZINC001456096501   -0.1300
     23 C23       -13.5632    1.5219   62.9370 C.3     1  ZINC001456096501   -0.1500
     24 C24       -15.3934    0.9627   61.3307 C.3     1  ZINC001456096501   -0.1700
     25 C25       -11.4601   -2.5242   58.7985 C.3     1  ZINC001456096501    0.1200
     26 H26       -12.1151   -3.9146   52.9668 H       1  ZINC001456096501    0.0600
     27 H27       -11.6908   -2.3906   53.7828 H       1  ZINC001456096501    0.0600
     28 H28       -10.4064   -3.4958   53.2377 H       1  ZINC001456096501    0.1000
     29 H29       -15.8124   -3.6048   54.9327 H       1  ZINC001456096501    0.1700
     30 H30       -16.0218   -4.1492   57.3202 H       1  ZINC001456096501    0.1500
     31 H31       -13.9878   -4.6956   58.6328 H       1  ZINC001456096501    0.1500
     32 H32        -9.7984   -4.9106   59.9645 H       1  ZINC001456096501    0.0700
     33 H33        -8.8344   -4.1932   58.6436 H       1  ZINC001456096501    0.0700
     34 H34        -9.1319   -3.0174   61.1477 H       1  ZINC001456096501    0.0900
     35 H35        -8.7987   -2.0857   59.6509 H       1  ZINC001456096501    0.0800
     36 H36        -9.8674   -0.3620   60.7454 H       1  ZINC001456096501    0.0800
     37 H37       -11.0744   -0.1529   59.4540 H       1  ZINC001456096501    0.0900
     38 H38       -11.1839    0.8887   63.0254 H       1  ZINC001456096501    0.0600
     39 H39       -12.3280   -0.4120   63.4347 H       1  ZINC001456096501    0.0900
     40 H40       -10.6442   -0.8074   63.0142 H       1  ZINC001456096501    0.0700
     41 H41       -13.6413   -1.1629   63.4019 H       1  ZINC001456096501    0.0600
     42 H42       -15.2700   -0.4847   63.6373 H       1  ZINC001456096501    0.0600
     43 H43       -14.9451   -1.5613   62.2575 H       1  ZINC001456096501    0.0600
     44 H44       -13.1718    2.3286   62.3172 H       1  ZINC001456096501    0.0700
     45 H45       -14.3433    1.9117   63.5908 H       1  ZINC001456096501    0.0700
     46 H46       -12.7578    1.1045   63.5412 H       1  ZINC001456096501    0.0600
     47 H47       -15.8100    0.1835   60.6923 H       1  ZINC001456096501    0.0600
     48 H48       -16.1350    1.2601   62.0721 H       1  ZINC001456096501    0.0700
     49 H49       -15.1222    1.8250   60.7216 H       1  ZINC001456096501    0.0800
     50 H50       -11.1116   -1.8012   58.0609 H       1  ZINC001456096501    0.0800
     51 H51       -12.5494   -2.5594   58.8112 H       1  ZINC001456096501    0.0700
@<TRIPOS>BOND
     1     1     2    1
     2     1    26    1
     3     1    27    1
     4     1    28    1
     5     2     3    1
     6     3     8   ar
     7     3     4   ar
     8     4     5   ar
     9     5     6   ar
    10     5    29    1
    11     6     7   ar
    12     6    30    1
    13     7     8   ar
    14     7    31    1
    15     8     9    1
    16     9    10    2
    17     9    11   am
    18    11    25    1
    19    11    12    1
    20    12    13    1
    21    12    32    1
    22    12    33    1
    23    13    14    1
    24    13    34    1
    25    13    35    1
    26    14    15    1
    27    14    16    1
    28    14    25    1
    29    16    17    1
    30    16    36    1
    31    16    37    1
    32    17    18    1
    33    17    19   am
    34    18    38    1
    35    18    39    1
    36    18    40    1
    37    19    20    2
    38    19    21    1
    39    21    22    1
    40    21    23    1
    41    21    24    1
    42    22    41    1
    43    22    42    1
    44    22    43    1
    45    23    44    1
    46    23    45    1
    47    23    46    1
    48    24    47    1
    49    24    48    1
    50    24    49    1
    51    25    50    1
    52    25    51    1
@<TRIPOS>SUBSTRUCTURE
     1 ZINC001456096501        1 TEMP              0 ****  ****    0 ROOT


##########                                Name:    ZINC000966038509
##########                DOCK_Rotatable_Bonds:                   5
##########                         Heavy_Atoms:                  25
##########                    Molecular_Weight:             346.445
##########                DOCK_Rotatable_Bonds:                   5
##########                       Formal_Charge:           0.0299998
##########                     HBond_Acceptors:                   5
##########                        HBond_Donors:                   1
##########                         Heavy_Atoms:                  25
##########                          Grid_Score:          -30.919945
##########                     Grid_vdw_energy:          -30.882408
##########                      Grid_es_energy:           -0.037536
##########           Internal_energy_repulsive:           16.579277

@<TRIPOS>MOLECULE
ZINC000966038509
 52 54 1 0 0
SMALL
USER_CHARGES


@<TRIPOS>ATOM
      1 C1        -12.2551   -4.6554   57.0430 C.3     1  ZINC000966038509   -0.1200
      2 C2        -11.2363   -3.7839   57.7312 C.ar    1  ZINC000966038509   -0.0100
      3 C3        -10.5453   -4.2610   58.8241 C.ar    1  ZINC000966038509   -0.1600
      4 C4         -9.6080   -3.4600   59.4586 C.ar    1  ZINC000966038509    0.1300
      5 F5         -8.9338   -3.9324   60.5298 F       1  ZINC000966038509   -0.1300
      6 C6         -9.3599   -2.1762   58.9974 C.ar    1  ZINC000966038509   -0.1600
      7 C7        -10.0454   -1.6892   57.9052 C.ar    1  ZINC000966038509   -0.0100
      8 C8         -9.7750   -0.2934   57.4054 C.3     1  ZINC000966038509   -0.1200
      9 C9        -10.9866   -2.4935   57.2592 C.ar    1  ZINC000966038509   -0.1500
     10 C10       -11.7242   -1.9769   56.0882 C.2     1  ZINC000966038509    0.5700
     11 O11       -12.8099   -1.4507   56.2374 O.2     1  ZINC000966038509   -0.5200
     12 N12       -11.1935   -2.0888   54.8543 N.am    1  ZINC000966038509   -0.7100
     13 C13       -11.9243   -1.5749   53.6933 C.3     1  ZINC000966038509    0.1300
     14 H14       -12.9834   -1.4563   53.9220 H       1  ZINC000966038509    0.1200
     15 C15       -11.3109   -0.2419   53.1967 C.3     1  ZINC000966038509    0.0900
     16 N16       -10.1506   -0.6417   52.3796 N.am    1  ZINC000966038509   -0.6200
     17 C17        -9.0699    0.1219   52.1234 C.2     1  ZINC000966038509    0.5400
     18 O18        -8.1702   -0.3120   51.4356 O.2     1  ZINC000966038509   -0.5300
     19 C19        -8.9797    1.5147   52.6917 C.3     1  ZINC000966038509   -0.1100
     20 C20        -7.6940    2.2209   52.1942 C.3     1  ZINC000966038509   -0.1100
     21 C21        -8.0516    3.7213   52.3355 C.3     1  ZINC000966038509   -0.1200
     22 C22        -9.5370    3.7964   51.9254 C.3     1  ZINC000966038509   -0.1200
     23 C23       -10.1270    2.3934   52.1519 C.3     1  ZINC000966038509   -0.1100
     24 C24       -10.3674   -2.0114   51.8913 C.3     1  ZINC000966038509    0.1000
     25 C25       -11.7213   -2.4916   52.4580 C.3     1  ZINC000966038509   -0.1100
     26 H26       -12.5190   -2.3413   51.7306 H       1  ZINC000966038509    0.1000
     27 C27       -11.6424   -3.9613   52.8760 C.3     1  ZINC000966038509   -0.1400
     28 H28       -11.7676   -5.2337   56.2581 H       1  ZINC000966038509    0.0800
     29 H29       -12.7030   -5.3336   57.7693 H       1  ZINC000966038509    0.0800
     30 H30       -13.0316   -4.0290   56.6038 H       1  ZINC000966038509    0.0700
     31 H31       -10.7345   -5.2604   59.1873 H       1  ZINC000966038509    0.1400
     32 H32        -8.6286   -1.5566   59.4950 H       1  ZINC000966038509    0.1400
     33 H33        -8.9776   -0.3215   56.6628 H       1  ZINC000966038509    0.0800
     34 H34       -10.6797    0.1117   56.9519 H       1  ZINC000966038509    0.0700
     35 H35        -9.4723    0.3391   58.2399 H       1  ZINC000966038509    0.0800
     36 H36       -10.3279   -2.5097   54.7351 H       1  ZINC000966038509    0.4000
     37 H37       -12.0323    0.3047   52.5894 H       1  ZINC000966038509    0.0800
     38 H38       -10.9881    0.3655   54.0422 H       1  ZINC000966038509    0.0800
     39 H39        -9.0031    1.4836   53.7810 H       1  ZINC000966038509    0.0900
     40 H40        -6.8436    1.9653   52.8264 H       1  ZINC000966038509    0.0700
     41 H41        -7.4926    1.9681   51.1532 H       1  ZINC000966038509    0.0700
     42 H42        -7.9239    4.0485   53.3674 H       1  ZINC000966038509    0.0700
     43 H43        -7.4397    4.3242   51.6646 H       1  ZINC000966038509    0.0700
     44 H44       -10.0590    4.5255   52.5450 H       1  ZINC000966038509    0.0700
     45 H45        -9.6205    4.0713   50.8739 H       1  ZINC000966038509    0.0700
     46 H46       -10.4969    1.9875   51.2103 H       1  ZINC000966038509    0.0800
     47 H47       -10.9353    2.4416   52.8814 H       1  ZINC000966038509    0.0700
     48 H48       -10.3992   -2.0158   50.8018 H       1  ZINC000966038509    0.0800
     49 H49        -9.5666   -2.6615   52.2435 H       1  ZINC000966038509    0.0700
     50 H50       -10.8598   -4.0845   53.6247 H       1  ZINC000966038509    0.0600
     51 H51       -12.5992   -4.2713   53.2962 H       1  ZINC000966038509    0.0700
     52 H52       -11.4121   -4.5749   52.0052 H       1  ZINC000966038509    0.0700
@<TRIPOS>BOND
     1     1     2    1
     2     1    28    1
     3     1    29    1
     4     1    30    1
     5     2     9   ar
     6     2     3   ar
     7     3     4   ar
     8     3    31    1
     9     4     5    1
    10     4     6   ar
    11     6     7   ar
    12     6    32    1
    13     7     8    1
    14     7     9   ar
    15     8    33    1
    16     8    34    1
    17     8    35    1
    18     9    10    1
    19    10    11    2
    20    10    12   am
    21    12    13    1
    22    12    36    1
    23    13    14    1
    24    13    25    1
    25    13    15    1
    26    15    16    1
    27    15    37    1
    28    15    38    1
    29    16    17   am
    30    16    24    1
    31    17    18    2
    32    17    19    1
    33    19    23    1
    34    19    20    1
    35    19    39    1
    36    20    21    1
    37    20    40    1
    38    20    41    1
    39    21    22    1
    40    21    42    1
    41    21    43    1
    42    22    23    1
    43    22    44    1
    44    22    45    1
    45    23    46    1
    46    23    47    1
    47    24    25    1
    48    24    48    1
    49    24    49    1
    50    25    26    1
    51    25    27    1
    52    27    50    1
    53    27    51    1
    54    27    52    1
@<TRIPOS>SUBSTRUCTURE
     1 ZINC000966038509        1 TEMP              0 ****  ****    0 ROOT


##########                                Name:    ZINC000826324849
##########                DOCK_Rotatable_Bonds:                   4
##########                         Heavy_Atoms:                  27
##########                    Molecular_Weight:             395.374
##########                DOCK_Rotatable_Bonds:                   4
##########                       Formal_Charge:           0.0400001
##########                     HBond_Acceptors:                  13
##########                        HBond_Donors:                   1
##########                         Heavy_Atoms:                  27
##########                          Grid_Score:          -30.919327
##########                     Grid_vdw_energy:          -30.387621
##########                      Grid_es_energy:           -0.531705
##########           Internal_energy_repulsive:          105.456673

@<TRIPOS>MOLECULE
ZINC000826324849
 41 44 1 0 0
SMALL
USER_CHARGES


@<TRIPOS>ATOM
      1 C1        -11.7173   -1.8715   51.5203 C.3     1  ZINC000826324849   -0.0600
      2 C2        -12.1545   -2.6872   52.7097 C.2     1  ZINC000826324849    0.2000
      3 N3        -13.2544   -2.5263   53.4053 N.2     1  ZINC000826324849   -0.4600
      4 C4        -13.2204   -3.4725   54.3605 C.2     1  ZINC000826324849    0.1600
      5 C5        -14.2646   -3.7066   55.4215 C.3     1  ZINC000826324849    0.2200
      6 H6        -15.2211   -3.3015   55.0910 H       1  ZINC000826324849    0.1300
      7 C7        -14.4043   -5.2101   55.6857 C.3     1  ZINC000826324849    0.0600
      8 O8        -15.2553   -5.4123   56.8164 O.3     1  ZINC000826324849   -0.3600
      9 C9        -14.7491   -4.8634   58.0355 C.3     1  ZINC000826324849    0.0400
     10 C10       -14.6272   -3.3422   57.8917 C.3     1  ZINC000826324849    0.0800
     11 N11       -13.8547   -3.0507   56.6734 N.am    1  ZINC000826324849   -1.0100
     12 S12       -12.5617   -2.0168   56.7107 S.o2    1  ZINC000826324849    2.7100
     13 O13       -11.9610   -2.0790   55.4245 O.2     1  ZINC000826324849   -0.9300
     14 O14       -13.0313   -0.8080   57.2916 O.2     1  ZINC000826324849   -0.9300
     15 C15       -11.3888   -2.6891   57.8408 C.ar    1  ZINC000826324849   -0.5800
     16 C16       -11.2289   -4.0563   57.9389 C.ar    1  ZINC000826324849   -0.0400
     17 C17       -10.3087   -4.5869   58.8254 C.ar    1  ZINC000826324849   -0.0800
     18 C18        -9.5440   -3.7521   59.6187 C.ar    1  ZINC000826324849   -0.1100
     19 C19        -9.6954   -2.3803   59.5293 C.ar    1  ZINC000826324849    0.1300
     20 F20        -8.9477   -1.5646   60.3043 F       1  ZINC000826324849   -0.1100
     21 C21       -10.6177   -1.8411   58.6323 C.ar    1  ZINC000826324849    0.0500
     22 C22       -10.7852   -0.3697   58.5305 C.2     1  ZINC000826324849    0.1800
     23 N23       -11.5002    0.3984   59.3283 N.2     1  ZINC000826324849   -0.2600
     24 N24       -11.3906    1.6122   58.9094 N.pl3   1  ZINC000826324849   -0.2200
     25 N25       -10.6289    1.6375   57.8720 N.2     1  ZINC000826324849   -0.0200
     26 N26       -10.2341    0.4373   57.6129 N.2     1  ZINC000826324849   -0.2600
     27 N27       -12.1220   -4.1480   54.2001 N.2     1  ZINC000826324849   -0.3800
     28 O28       -11.4981   -3.7166   53.2535 O.3     1  ZINC000826324849    0.0900
     29 H29       -10.7623   -2.2474   51.1532 H       1  ZINC000826324849    0.1000
     30 H30       -12.4657   -1.9490   50.7317 H       1  ZINC000826324849    0.1100
     31 H31       -11.6075   -0.8281   51.8159 H       1  ZINC000826324849    0.1100
     32 H32       -14.8391   -5.6945   54.8114 H       1  ZINC000826324849    0.1200
     33 H33       -13.4220   -5.6370   55.8883 H       1  ZINC000826324849    0.0600
     34 H34       -15.4322   -5.0984   58.8519 H       1  ZINC000826324849    0.1200
     35 H35       -13.7681   -5.2890   58.2467 H       1  ZINC000826324849    0.0600
     36 H36       -15.6203   -2.9002   57.8106 H       1  ZINC000826324849    0.0900
     37 H37       -14.1119   -2.9315   58.7601 H       1  ZINC000826324849    0.1100
     38 H38       -11.8238   -4.7138   57.3223 H       1  ZINC000826324849    0.1400
     39 H39       -10.1875   -5.6576   58.8981 H       1  ZINC000826324849    0.1500
     40 H40        -8.8277   -4.1717   60.3096 H       1  ZINC000826324849    0.1500
     41 H41       -11.8156    2.3854   59.3124 H       1  ZINC000826324849    0.4800
@<TRIPOS>BOND
     1     1     2    1
     2     1    29    1
     3     1    30    1
     4     1    31    1
     5     2    28    1
     6     2     3    2
     7     3     4    1
     8     4     5    1
     9     4    27    2
    10     5     6    1
    11     5    11    1
    12     5     7    1
    13     7     8    1
    14     7    32    1
    15     7    33    1
    16     8     9    1
    17     9    10    1
    18     9    34    1
    19     9    35    1
    20    10    11    1
    21    10    36    1
    22    10    37    1
    23    11    12   am
    24    12    13    2
    25    12    14    2
    26    12    15    1
    27    15    21   ar
    28    15    16   ar
    29    16    17   ar
    30    16    38    1
    31    17    18   ar
    32    17    39    1
    33    18    19   ar
    34    18    40    1
    35    19    20    1
    36    19    21   ar
    37    21    22    1
    38    22    26    1
    39    22    23    2
    40    23    24    1
    41    24    25    1
    42    24    41    1
    43    25    26    2
    44    27    28    1
@<TRIPOS>SUBSTRUCTURE
     1 ZINC000826324849        1 TEMP              0 ****  ****    0 ROOT


##########                                Name:    ZINC001015955459
##########                DOCK_Rotatable_Bonds:                   6
##########                         Heavy_Atoms:                  24
##########                    Molecular_Weight:             347.844
##########                DOCK_Rotatable_Bonds:                   6
##########                       Formal_Charge:          -0.0200002
##########                     HBond_Acceptors:                   6
##########                        HBond_Donors:                   1
##########                         Heavy_Atoms:                  24
##########                          Grid_Score:          -30.912113
##########                     Grid_vdw_energy:          -30.921755
##########                      Grid_es_energy:            0.009642
##########           Internal_energy_repulsive:           14.459366

@<TRIPOS>MOLECULE
ZINC001015955459
 46 48 1 0 0
SMALL
USER_CHARGES


@<TRIPOS>ATOM
      1 C1        -13.2463    1.0735   62.9907 C.3     1  ZINC001015955459   -0.1500
      2 C2        -11.9545    0.6636   62.2807 C.3     1  ZINC001015955459   -0.0300
      3 C3        -11.5288    1.7724   61.3162 C.3     1  ZINC001015955459   -0.1500
      4 C4        -10.8687    0.4419   63.3018 C.2     1  ZINC001015955459    0.0600
      5 C5         -9.8309   -0.4331   63.2036 C.2     1  ZINC001015955459   -0.0800
      6 C6         -9.5569   -1.3440   62.0774 C.2     1  ZINC001015955459    0.6100
      7 O7         -8.9086   -2.3570   62.2584 O.2     1  ZINC001015955459   -0.5300
      8 N8        -10.0247   -1.0543   60.8471 N.am    1  ZINC001015955459   -0.7100
      9 C9         -9.7539   -1.9604   59.7283 C.3     1  ZINC001015955459    0.1400
     10 H10        -8.7325   -2.3367   59.7854 H       1  ZINC001015955459    0.1000
     11 C11       -10.7576   -3.1318   59.7325 C.3     1  ZINC001015955459   -0.1300
     12 C12       -11.5108   -3.0196   58.3896 C.3     1  ZINC001015955459    0.0200
     13 N13       -10.5825   -2.2743   57.5009 N.3     1  ZINC001015955459   -0.4900
     14 C14       -11.3068   -1.6578   56.3814 C.3     1  ZINC001015955459    0.0800
     15 C15       -12.3989   -2.5867   55.9173 C.ar    1  ZINC001015955459   -0.1100
     16 C16       -12.1010   -3.6300   55.0609 C.ar    1  ZINC001015955459   -0.1100
     17 C17       -13.1017   -4.4856   54.6386 C.ar    1  ZINC001015955459   -0.1000
     18 C18       -14.4021   -4.2916   55.0639 C.ar    1  ZINC001015955459   -0.1100
     19 C19       -14.7019   -3.2442   55.9170 C.ar    1  ZINC001015955459   -0.0300
     20 Cl20      -16.3354   -2.9996   56.4513 Cl      1  ZINC001015955459   -0.0700
     21 C21       -13.6994   -2.3918   56.3434 C.ar    1  ZINC001015955459   -0.1000
     22 C22        -9.9844   -1.2366   58.3842 C.3     1  ZINC001015955459    0.0100
     23 N23        -9.0972   -0.3131   64.3432 N.2     1  ZINC001015955459   -0.4600
     24 C24        -9.6485    0.5923   65.0946 C.2     1  ZINC001015955459    0.1800
     25 O25       -10.7406    1.0702   64.4813 O.3     1  ZINC001015955459   -0.1900
     26 H26       -13.0779    1.9949   63.5480 H       1  ZINC001015955459    0.0600
     27 H27       -14.0318    1.2338   62.2521 H       1  ZINC001015955459    0.0700
     28 H28       -13.5496    0.2835   63.6778 H       1  ZINC001015955459    0.0600
     29 H29       -12.1229   -0.2579   61.7233 H       1  ZINC001015955459    0.1300
     30 H30       -10.6085    1.4804   60.8103 H       1  ZINC001015955459    0.0600
     31 H31       -12.3143    1.9328   60.5775 H       1  ZINC001015955459    0.0700
     32 H32       -11.3605    2.6939   61.8734 H       1  ZINC001015955459    0.0600
     33 H33       -10.5408   -0.2457   60.7025 H       1  ZINC001015955459    0.4100
     34 H34       -10.2288   -4.0831   59.7917 H       1  ZINC001015955459    0.0800
     35 H35       -11.4517   -3.0327   60.5671 H       1  ZINC001015955459    0.0700
     36 H36       -11.7126   -4.0107   57.9830 H       1  ZINC001015955459    0.0900
     37 H37       -12.4398   -2.4649   58.5200 H       1  ZINC001015955459    0.0500
     38 H38       -11.7460   -0.7150   56.7078 H       1  ZINC001015955459    0.0900
     39 H39       -10.6150   -1.4712   55.5599 H       1  ZINC001015955459    0.0900
     40 H40       -11.0857   -3.7792   54.7247 H       1  ZINC001015955459    0.1300
     41 H41       -12.8677   -5.3030   53.9728 H       1  ZINC001015955459    0.1300
     42 H42       -15.1845   -4.9573   54.7303 H       1  ZINC001015955459    0.1300
     43 H43       -13.9328   -1.5737   57.0090 H       1  ZINC001015955459    0.1300
     44 H44       -10.6749   -0.4033   58.5146 H       1  ZINC001015955459    0.0700
     45 H45        -9.0373   -0.8860   57.9741 H       1  ZINC001015955459    0.0900
     46 H46        -9.2870    0.9066   66.0624 H       1  ZINC001015955459    0.2600
@<TRIPOS>BOND
     1     1     2    1
     2     1    26    1
     3     1    27    1
     4     1    28    1
     5     2     3    1
     6     2     4    1
     7     2    29    1
     8     3    30    1
     9     3    31    1
    10     3    32    1
    11     4    25    1
    12     4     5    2
    13     5     6    1
    14     5    23    1
    15     6     7    2
    16     6     8   am
    17     8     9    1
    18     8    33    1
    19     9    10    1
    20     9    22    1
    21     9    11    1
    22    11    12    1
    23    11    34    1
    24    11    35    1
    25    12    13    1
    26    12    36    1
    27    12    37    1
    28    13    14    1
    29    13    22    1
    30    14    15    1
    31    14    38    1
    32    14    39    1
    33    15    21   ar
    34    15    16   ar
    35    16    17   ar
    36    16    40    1
    37    17    18   ar
    38    17    41    1
    39    18    19   ar
    40    18    42    1
    41    19    20    1
    42    19    21   ar
    43    21    43    1
    44    22    44    1
    45    22    45    1
    46    23    24    2
    47    24    25    1
    48    24    46    1
@<TRIPOS>SUBSTRUCTURE
     1 ZINC001015955459        1 TEMP              0 ****  ****    0 ROOT


##########                                Name:    ZINC000618094467
##########                DOCK_Rotatable_Bonds:                   5
##########                         Heavy_Atoms:                  27
##########                    Molecular_Weight:             370.492
##########                DOCK_Rotatable_Bonds:                   5
##########                       Formal_Charge:                0.03
##########                     HBond_Acceptors:                   5
##########                        HBond_Donors:                   0
##########                         Heavy_Atoms:                  27
##########                          Grid_Score:          -30.898947
##########                     Grid_vdw_energy:          -29.940273
##########                      Grid_es_energy:           -0.958673
##########           Internal_energy_repulsive:          112.636353

@<TRIPOS>MOLECULE
ZINC000618094467
 57 59 1 0 0
SMALL
USER_CHARGES


@<TRIPOS>ATOM
      1 C1        -16.8626   -1.0576   59.8780 C.3     1  ZINC000618094467   -0.1500
      2 C2        -15.4518   -1.2290   59.3115 C.3     1  ZINC000618094467   -0.1000
      3 C3        -14.8816   -2.5757   59.7612 C.3     1  ZINC000618094467   -0.1100
      4 H4        -14.8416   -2.6079   60.8501 H       1  ZINC000618094467    0.1000
      5 C5        -15.7782   -3.7054   59.2503 C.3     1  ZINC000618094467   -0.1500
      6 C6        -13.4925   -2.7450   59.2022 C.2     1  ZINC000618094467    0.5200
      7 O7        -13.2638   -3.6287   58.4036 O.2     1  ZINC000618094467   -0.5000
      8 N8        -12.5042   -1.9145   59.5894 N.am    1  ZINC000618094467   -0.6100
      9 C9        -12.7483   -0.8359   60.5531 C.3     1  ZINC000618094467    0.1400
     10 C10       -11.6338   -0.8004   61.5685 C.ar    1  ZINC000618094467   -0.1000
     11 C11       -11.8101   -0.0108   62.6962 C.ar    1  ZINC000618094467   -0.1100
     12 C12       -10.8218    0.0706   63.6559 C.ar    1  ZINC000618094467   -0.1200
     13 C13        -9.6471   -0.6390   63.4917 C.ar    1  ZINC000618094467   -0.1100
     14 C14        -9.4724   -1.4273   62.3732 C.ar    1  ZINC000618094467   -0.1200
     15 C15       -10.4681   -1.5159   61.4083 C.ar    1  ZINC000618094467   -0.0600
     16 C16       -10.2185   -2.4174   60.2280 C.3     1  ZINC000618094467   -0.0800
     17 C17       -11.1353   -2.0572   59.0668 C.3     1  ZINC000618094467    0.1200
     18 H18       -10.8150   -1.1147   58.6227 H       1  ZINC000618094467    0.1000
     19 C19       -11.0961   -3.1491   58.0288 C.2     1  ZINC000618094467    0.5500
     20 O20       -11.0295   -4.3103   58.3723 O.2     1  ZINC000618094467   -0.5200
     21 N21       -11.1350   -2.8351   56.7187 N.am    1  ZINC000618094467   -0.6100
     22 C22       -11.1033   -3.8925   55.7001 C.3     1  ZINC000618094467    0.1200
     23 C23       -12.3534   -3.7678   54.8199 C.3     1  ZINC000618094467   -0.1600
     24 H24       -12.2544   -4.4148   53.9483 H       1  ZINC000618094467    0.1100
     25 C25       -13.5914   -4.1717   55.6232 C.3     1  ZINC000618094467   -0.1400
     26 C26       -12.4822   -2.3279   54.3736 C.2     1  ZINC000618094467    0.3700
     27 O27       -12.5986   -2.0511   53.2040 O.2     1  ZINC000618094467   -0.4400
     28 C28       -12.4623   -1.2434   55.4283 C.3     1  ZINC000618094467   -0.1600
     29 H29       -13.3533   -1.3208   56.0513 H       1  ZINC000618094467    0.1100
     30 C30       -12.4226    0.1297   54.7546 C.3     1  ZINC000618094467   -0.1400
     31 C31       -11.2156   -1.4317   56.2934 C.3     1  ZINC000618094467    0.1400
     32 H32       -16.8233   -1.0902   60.9669 H       1  ZINC000618094467    0.0500
     33 H33       -17.2688   -0.0983   59.5575 H       1  ZINC000618094467    0.0600
     34 H34       -17.5008   -1.8625   59.5133 H       1  ZINC000618094467    0.0600
     35 H35       -15.4911   -1.1966   58.2226 H       1  ZINC000618094467    0.0700
     36 H36       -14.8136   -0.4242   59.6762 H       1  ZINC000618094467    0.0700
     37 H37       -15.9299   -3.5916   58.1770 H       1  ZINC000618094467    0.0700
     38 H38       -15.3024   -4.6654   59.4503 H       1  ZINC000618094467    0.0700
     39 H39       -16.7409   -3.6638   59.7599 H       1  ZINC000618094467    0.0700
     40 H40       -12.7902    0.1179   60.0272 H       1  ZINC000618094467    0.0900
     41 H41       -13.6965   -1.0112   61.0613 H       1  ZINC000618094467    0.1100
     42 H42       -12.7276    0.5447   62.8234 H       1  ZINC000618094467    0.1300
     43 H43       -10.9655    0.6862   64.5315 H       1  ZINC000618094467    0.1300
     44 H44        -8.8679   -0.5762   64.2369 H       1  ZINC000618094467    0.1200
     45 H45        -8.5534   -1.9803   62.2462 H       1  ZINC000618094467    0.1200
     46 H46        -9.1803   -2.3150   59.9120 H       1  ZINC000618094467    0.0900
     47 H47       -10.4029   -3.4509   60.5210 H       1  ZINC000618094467    0.1000
     48 H48       -10.2105   -3.7806   55.0849 H       1  ZINC000618094467    0.0700
     49 H49       -11.0946   -4.8681   56.1864 H       1  ZINC000618094467    0.0900
     50 H50       -13.7413   -3.4650   56.4395 H       1  ZINC000618094467    0.0600
     51 H51       -14.4652   -4.1650   54.9717 H       1  ZINC000618094467    0.0600
     52 H52       -13.4496   -5.1727   56.0306 H       1  ZINC000618094467    0.0700
     53 H53       -13.3054    0.2520   54.1269 H       1  ZINC000618094467    0.0700
     54 H54       -12.4083    0.9083   55.5172 H       1  ZINC000618094467    0.0700
     55 H55       -11.5260    0.2069   54.1396 H       1  ZINC000618094467    0.0600
     56 H56       -11.2780   -0.7864   57.1696 H       1  ZINC000618094467    0.1100
     57 H57       -10.3273   -1.1798   55.7141 H       1  ZINC000618094467    0.0700
@<TRIPOS>BOND
     1     1     2    1
     2     1    32    1
     3     1    33    1
     4     1    34    1
     5     2     3    1
     6     2    35    1
     7     2    36    1
     8     3     4    1
     9     3     5    1
    10     3     6    1
    11     5    37    1
    12     5    38    1
    13     5    39    1
    14     6     7    2
    15     6     8   am
    16     8    17    1
    17     8     9    1
    18     9    10    1
    19     9    40    1
    20     9    41    1
    21    10    15   ar
    22    10    11   ar
    23    11    12   ar
    24    11    42    1
    25    12    13   ar
    26    12    43    1
    27    13    14   ar
    28    13    44    1
    29    14    15   ar
    30    14    45    1
    31    15    16    1
    32    16    17    1
    33    16    46    1
    34    16    47    1
    35    17    18    1
    36    17    19    1
    37    19    20    2
    38    19    21   am
    39    21    31    1
    40    21    22    1
    41    22    23    1
    42    22    48    1
    43    22    49    1
    44    23    24    1
    45    23    25    1
    46    23    26    1
    47    25    50    1
    48    25    51    1
    49    25    52    1
    50    26    27    2
    51    26    28    1
    52    28    29    1
    53    28    30    1
    54    28    31    1
    55    30    53    1
    56    30    54    1
    57    30    55    1
    58    31    56    1
    59    31    57    1
@<TRIPOS>SUBSTRUCTURE
     1 ZINC000618094467        1 TEMP              0 ****  ****    0 ROOT


##########                                Name:    ZINC000523878927
##########                DOCK_Rotatable_Bonds:                   8
##########                         Heavy_Atoms:                  27
##########                    Molecular_Weight:             376.474
##########                DOCK_Rotatable_Bonds:                   8
##########                       Formal_Charge:          0.00999957
##########                     HBond_Acceptors:                   7
##########                        HBond_Donors:                   3
##########                         Heavy_Atoms:                  27
##########                          Grid_Score:          -30.882750
##########                     Grid_vdw_energy:          -30.232773
##########                      Grid_es_energy:           -0.649977
##########           Internal_energy_repulsive:            5.734850

@<TRIPOS>MOLECULE
ZINC000523878927
 56 58 1 0 0
SMALL
USER_CHARGES


@<TRIPOS>ATOM
      1 C1         -1.5830    0.3067   46.9422 C.3     1  ZINC000523878927   -0.1500
      2 C2         -1.7883    1.7849   46.6052 C.3     1  ZINC000523878927   -0.0900
      3 H3         -2.2902    1.8715   45.6415 H       1  ZINC000523878927    0.0700
      4 C4         -0.4300    2.4859   46.5376 C.3     1  ZINC000523878927   -0.1200
      5 C5          0.2745    2.3643   47.8903 C.3     1  ZINC000523878927   -0.1200
      6 C6         -0.5845    3.0199   48.9736 C.3     1  ZINC000523878927   -0.1100
      7 C7         -1.9428    2.3189   49.0410 C.3     1  ZINC000523878927   -0.1000
      8 H8         -1.7966    1.2658   49.2812 H       1  ZINC000523878927    0.0800
      9 C9         -2.8018    2.9745   50.1241 C.3     1  ZINC000523878927    0.1400
     10 N10        -4.0515    2.2252   50.2764 N.am    1  ZINC000523878927   -0.7400
     11 C11        -4.9415    2.5843   51.2227 C.2     1  ZINC000523878927    0.7200
     12 O12        -4.7067    3.5293   51.9508 O.2     1  ZINC000523878927   -0.5800
     13 N13        -6.0918    1.8959   51.3617 N.am    1  ZINC000523878927   -0.6400
     14 C14        -6.5019    0.7351   50.5506 C.3     1  ZINC000523878927    0.1000
     15 C15        -7.5013   -0.0402   51.4448 C.3     1  ZINC000523878927   -0.1400
     16 C16        -8.2513    1.1196   52.1519 C.3     1  ZINC000523878927    0.1500
     17 H17        -9.0478    1.5074   51.5171 H       1  ZINC000523878927    0.1100
     18 N18        -8.7874    0.6794   53.4424 N.am    1  ZINC000523878927   -0.7300
     19 C19        -9.9767    0.0478   53.4979 C.2     1  ZINC000523878927    0.7100
     20 O20       -10.6039   -0.1582   52.4768 O.2     1  ZINC000523878927   -0.5700
     21 N21       -10.4706   -0.3556   54.6852 N.am    1  ZINC000523878927   -0.6800
     22 C22       -11.7066   -1.0120   54.7429 C.ar    1  ZINC000523878927    0.1500
     23 C23       -12.8762   -0.3174   54.4649 C.ar    1  ZINC000523878927   -0.1200
     24 C24       -14.0939   -0.9665   54.5218 C.ar    1  ZINC000523878927   -0.1300
     25 C25       -14.1489   -2.3090   54.8564 C.ar    1  ZINC000523878927    0.0800
     26 F26       -15.3410   -2.9422   54.9120 F       1  ZINC000523878927   -0.1400
     27 C27       -12.9836   -3.0036   55.1336 C.ar    1  ZINC000523878927   -0.1300
     28 C28       -11.7633   -2.3594   55.0726 C.ar    1  ZINC000523878927   -0.0900
     29 C29        -7.1426    2.1742   52.3516 C.3     1  ZINC000523878927    0.1200
     30 C30        -2.6473    2.4404   47.6883 C.3     1  ZINC000523878927   -0.1100
     31 H31        -2.5507   -0.1928   46.9903 H       1  ZINC000523878927    0.0500
     32 H32        -0.9711   -0.1604   46.1706 H       1  ZINC000523878927    0.0500
     33 H33        -1.0812    0.2200   47.9059 H       1  ZINC000523878927    0.0600
     34 H34         0.1820    2.0188   45.7660 H       1  ZINC000523878927    0.0600
     35 H35        -0.5763    3.5391   46.2975 H       1  ZINC000523878927    0.0600
     36 H36         0.4206    1.3112   48.1305 H       1  ZINC000523878927    0.0700
     37 H37         1.2421    2.8638   47.8422 H       1  ZINC000523878927    0.0600
     38 H38        -0.0826    2.9333   49.9372 H       1  ZINC000523878927    0.0600
     39 H39        -0.7307    4.0731   48.7334 H       1  ZINC000523878927    0.0600
     40 H40        -2.2592    2.9720   51.0693 H       1  ZINC000523878927    0.0700
     41 H41        -3.0269    4.0017   49.8370 H       1  ZINC000523878927    0.0700
     42 H42        -4.2382    1.4706   49.6963 H       1  ZINC000523878927    0.3900
     43 H43        -6.9906    1.0663   49.6343 H       1  ZINC000523878927    0.0800
     44 H44        -5.6389    0.1115   50.3171 H       1  ZINC000523878927    0.0800
     45 H45        -8.1851   -0.6364   50.8404 H       1  ZINC000523878927    0.1000
     46 H46        -6.9761   -0.6641   52.1678 H       1  ZINC000523878927    0.0800
     47 H47        -8.2864    0.8427   54.2567 H       1  ZINC000523878927    0.4000
     48 H48        -9.9701   -0.1913   55.4997 H       1  ZINC000523878927    0.4100
     49 H49       -12.8337    0.7300   54.2046 H       1  ZINC000523878927    0.1400
     50 H50       -15.0039   -0.4266   54.3056 H       1  ZINC000523878927    0.1400
     51 H51       -13.0285   -4.0508   55.3943 H       1  ZINC000523878927    0.1400
     52 H52       -10.8546   -2.9017   55.2885 H       1  ZINC000523878927    0.1500
     53 H53        -6.7374    2.0995   53.3607 H       1  ZINC000523878927    0.0700
     54 H54        -7.5466    3.1727   52.1851 H       1  ZINC000523878927    0.0800
     55 H55        -2.7935    3.4936   47.4482 H       1  ZINC000523878927    0.0700
     56 H56        -3.6150    1.9411   47.7364 H       1  ZINC000523878927    0.0700
@<TRIPOS>BOND
     1     1     2    1
     2     1    31    1
     3     1    32    1
     4     1    33    1
     5     2     3    1
     6     2    30    1
     7     2     4    1
     8     4     5    1
     9     4    34    1
    10     4    35    1
    11     5     6    1
    12     5    36    1
    13     5    37    1
    14     6     7    1
    15     6    38    1
    16     6    39    1
    17     7     8    1
    18     7     9    1
    19     7    30    1
    20     9    10    1
    21     9    40    1
    22     9    41    1
    23    10    11   am
    24    10    42    1
    25    11    12    2
    26    11    13   am
    27    13    29    1
    28    13    14    1
    29    14    15    1
    30    14    43    1
    31    14    44    1
    32    15    16    1
    33    15    45    1
    34    15    46    1
    35    16    17    1
    36    16    18    1
    37    16    29    1
    38    18    19   am
    39    18    47    1
    40    19    20    2
    41    19    21   am
    42    21    22    1
    43    21    48    1
    44    22    28   ar
    45    22    23   ar
    46    23    24   ar
    47    23    49    1
    48    24    25   ar
    49    24    50    1
    50    25    26    1
    51    25    27   ar
    52    27    28   ar
    53    27    51    1
    54    28    52    1
    55    29    53    1
    56    29    54    1
    57    30    55    1
    58    30    56    1
@<TRIPOS>SUBSTRUCTURE
     1 ZINC000523878927        1 TEMP              0 ****  ****    0 ROOT


##########                                Name:    ZINC000416583757
##########                DOCK_Rotatable_Bonds:                   7
##########                         Heavy_Atoms:                  20
##########                    Molecular_Weight:             380.693
##########                DOCK_Rotatable_Bonds:                   7
##########                       Formal_Charge:         1.04308e-07
##########                     HBond_Acceptors:                   7
##########                        HBond_Donors:                   1
##########                         Heavy_Atoms:                  20
##########                          Grid_Score:          -30.874252
##########                     Grid_vdw_energy:          -30.371088
##########                      Grid_es_energy:           -0.503165
##########           Internal_energy_repulsive:           11.879475

@<TRIPOS>MOLECULE
ZINC000416583757
 35 35 1 0 0
SMALL
USER_CHARGES


@<TRIPOS>ATOM
      1 C1         -8.2421    4.7781   52.9419 C.3     1  ZINC000416583757   -0.1500
      2 C2         -8.5198    3.2987   52.6684 C.3     1  ZINC000416583757   -0.0200
      3 H3         -8.8076    2.8053   53.5968 H       1  ZINC000416583757    0.1200
      4 C4         -9.6123    3.1774   51.6893 C.1     1  ZINC000416583757    0.2100
      5 N5        -10.4555    3.0840   50.9337 N.1     1  ZINC000416583757   -0.4200
      6 C6         -7.2583    2.6376   52.1094 C.3     1  ZINC000416583757    0.1300
      7 N7         -7.5097    1.2106   51.8933 N.am    1  ZINC000416583757   -1.0100
      8 C8         -8.3302    0.4589   52.8462 C.3     1  ZINC000416583757    0.0800
      9 S9         -6.8663    0.4472   50.5722 S.o2    1  ZINC000416583757    2.7800
     10 O10        -7.1571   -0.9352   50.7264 O.2     1  ZINC000416583757   -0.9700
     11 O11        -7.2659    1.2036   49.4376 O.2     1  ZINC000416583757   -0.9700
     12 N12        -5.2199    0.5931   50.6752 N.am    1  ZINC000416583757   -1.1300
     13 C13        -4.6021    1.9212   50.6963 C.3     1  ZINC000416583757    0.1600
     14 C14        -3.3532    1.9078   49.8532 C.ar    1  ZINC000416583757   -0.0800
     15 C15        -3.4469    1.7611   48.4822 C.ar    1  ZINC000416583757   -0.0800
     16 C16        -2.3003    1.7492   47.7075 C.ar    1  ZINC000416583757   -0.0300
     17 Cl17       -2.4181    1.5655   45.9852 Cl      1  ZINC000416583757   -0.0500
     18 C18        -1.0606    1.8842   48.3056 C.ar    1  ZINC000416583757   -0.0700
     19 C19        -0.9675    2.0311   49.6779 C.ar    1  ZINC000416583757   -0.0800
     20 Br20        0.7271    2.2157   50.4964 Br      1  ZINC000416583757   -0.0300
     21 C21        -2.1145    2.0480   50.4507 C.ar    1  ZINC000416583757   -0.0700
     22 H22        -9.1698    5.2760   53.2238 H       1  ZINC000416583757    0.0700
     23 H23        -7.5201    4.8682   53.7536 H       1  ZINC000416583757    0.0800
     24 H24        -7.8382    5.2442   52.0431 H       1  ZINC000416583757    0.0700
     25 H25        -6.9913    3.1069   51.1625 H       1  ZINC000416583757    0.0900
     26 H26        -6.4398    2.7591   52.8188 H       1  ZINC000416583757    0.1000
     27 H27        -9.3753    0.5029   52.5396 H       1  ZINC000416583757    0.0700
     28 H28        -8.0015   -0.5801   52.8684 H       1  ZINC000416583757    0.0800
     29 H29        -8.2244    0.8946   53.8397 H       1  ZINC000416583757    0.0800
     30 H30        -4.6647   -0.2009   50.7217 H       1  ZINC000416583757    0.4200
     31 H31        -5.3027    2.6542   50.2962 H       1  ZINC000416583757    0.0800
     32 H32        -4.3454    2.1864   51.7220 H       1  ZINC000416583757    0.1000
     33 H33        -4.4150    1.6553   48.0154 H       1  ZINC000416583757    0.1500
     34 H34        -0.1654    1.8747   47.7015 H       1  ZINC000416583757    0.1500
     35 H35        -2.0418    2.1627   51.5222 H       1  ZINC000416583757    0.1400
@<TRIPOS>BOND
     1     1     2    1
     2     1    22    1
     3     1    23    1
     4     1    24    1
     5     2     3    1
     6     2     4    1
     7     2     6    1
     8     4     5    3
     9     6     7    1
    10     6    25    1
    11     6    26    1
    12     7     8    1
    13     7     9   am
    14     8    27    1
    15     8    28    1
    16     8    29    1
    17     9    10    2
    18     9    11    2
    19     9    12   am
    20    12    13    1
    21    12    30    1
    22    13    14    1
    23    13    31    1
    24    13    32    1
    25    14    21   ar
    26    14    15   ar
    27    15    16   ar
    28    15    33    1
    29    16    17    1
    30    16    18   ar
    31    18    19   ar
    32    18    34    1
    33    19    20    1
    34    19    21   ar
    35    21    35    1
@<TRIPOS>SUBSTRUCTURE
     1 ZINC000416583757        1 TEMP              0 ****  ****    0 ROOT


##########                                Name:    ZINC000560467340
##########                DOCK_Rotatable_Bonds:                   7
##########                         Heavy_Atoms:                  24
##########                    Molecular_Weight:             369.481
##########                DOCK_Rotatable_Bonds:                   7
##########                       Formal_Charge:          -0.0199997
##########                     HBond_Acceptors:                   7
##########                        HBond_Donors:                   2
##########                         Heavy_Atoms:                  24
##########                          Grid_Score:          -30.864887
##########                     Grid_vdw_energy:          -31.804228
##########                      Grid_es_energy:            0.939340
##########           Internal_energy_repulsive:           23.117239

@<TRIPOS>MOLECULE
ZINC000560467340
 44 46 1 0 0
SMALL
USER_CHARGES


@<TRIPOS>ATOM
      1 O1        -12.3826   -2.1315   52.8329 O.2     1  ZINC000560467340   -0.9600
      2 S2        -11.6588   -1.1194   53.5192 S.o2    1  ZINC000560467340    2.7100
      3 O3        -12.1574    0.1970   53.7131 O.2     1  ZINC000560467340   -0.9500
      4 N4        -11.3286   -1.7211   55.0263 N.am    1  ZINC000560467340   -1.0900
      5 C5        -12.4204   -1.9723   55.9702 C.3     1  ZINC000560467340    0.1400
      6 C6        -12.4528   -3.4594   56.3287 C.3     1  ZINC000560467340   -0.0500
      7 C7        -11.0425   -3.9480   56.6647 C.3     1  ZINC000560467340   -0.0700
      8 C8        -10.5955   -3.3351   57.9670 C.ar    1  ZINC000560467340   -0.0900
      9 C9        -10.1677   -2.0210   58.0010 C.ar    1  ZINC000560467340   -0.0900
     10 C10        -9.7575   -1.4580   59.1946 C.ar    1  ZINC000560467340   -0.1500
     11 C11        -9.7757   -2.2105   60.3568 C.ar    1  ZINC000560467340    0.1000
     12 F12        -9.3755   -1.6610   61.5242 F       1  ZINC000560467340   -0.1400
     13 C13       -10.2049   -3.5264   60.3215 C.ar    1  ZINC000560467340   -0.1500
     14 C14       -10.6191   -4.0859   59.1276 C.ar    1  ZINC000560467340   -0.0900
     15 C15       -13.0292   -4.2740   55.1523 C.3     1  ZINC000560467340   -0.1300
     16 C16       -13.8691   -5.3829   55.8337 C.3     1  ZINC000560467340   -0.1200
     17 C17       -14.5042   -4.6408   57.0357 C.3     1  ZINC000560467340   -0.1600
     18 C18       -13.3907   -3.6925   57.5261 C.3     1  ZINC000560467340    0.1100
     19 H19       -12.8412   -4.1546   58.3463 H       1  ZINC000560467340    0.0600
     20 O20       -13.9571   -2.4524   57.9543 O.3     1  ZINC000560467340   -0.5500
     21 C21       -10.1206   -0.9498   52.6768 C.2     1  ZINC000560467340   -0.6900
     22 C22        -9.5597   -1.9521   51.9986 C.2     1  ZINC000560467340   -0.1000
     23 S23        -8.0403   -1.4118   51.2965 S.3     1  ZINC000560467340    0.1500
     24 C24        -8.2587    0.1924   51.9839 C.2     1  ZINC000560467340   -0.2200
     25 C25        -9.4054    0.2353   52.6638 C.2     1  ZINC000560467340   -0.0700
     26 H26       -10.4122   -1.9073   55.2841 H       1  ZINC000560467340    0.4200
     27 H27       -12.2618   -1.3840   56.8741 H       1  ZINC000560467340    0.0600
     28 H28       -13.3683   -1.6879   55.5133 H       1  ZINC000560467340    0.0800
     29 H29       -11.0465   -5.0341   56.7568 H       1  ZINC000560467340    0.0800
     30 H30       -10.3569   -3.6531   55.8703 H       1  ZINC000560467340    0.0800
     31 H31       -10.1536   -1.4343   57.0944 H       1  ZINC000560467340    0.1300
     32 H32        -9.4226   -0.4316   59.2209 H       1  ZINC000560467340    0.1400
     33 H33       -10.2191   -4.1145   61.2273 H       1  ZINC000560467340    0.1400
     34 H34       -10.9542   -5.1123   59.0999 H       1  ZINC000560467340    0.1300
     35 H35       -13.6633   -3.6452   54.5272 H       1  ZINC000560467340    0.0700
     36 H36       -12.2250   -4.7130   54.5620 H       1  ZINC000560467340    0.0800
     37 H37       -14.6395   -5.7542   55.1580 H       1  ZINC000560467340    0.0700
     38 H38       -13.2296   -6.1964   56.1762 H       1  ZINC000560467340    0.0700
     39 H39       -15.3763   -4.0712   56.7147 H       1  ZINC000560467340    0.0800
     40 H40       -14.7764   -5.3474   57.8198 H       1  ZINC000560467340    0.0700
     41 H41       -13.3176   -1.8426   58.3469 H       1  ZINC000560467340    0.3800
     42 H42        -9.9749   -2.9439   51.8964 H       1  ZINC000560467340    0.1800
     43 H43        -7.5716    1.0177   51.8690 H       1  ZINC000560467340    0.1700
     44 H44        -9.7463    1.1251   53.1723 H       1  ZINC000560467340    0.1500
@<TRIPOS>BOND
     1     1     2    2
     2     2     3    2
     3     2     4   am
     4     2    21    1
     5     4     5    1
     6     4    26    1
     7     5     6    1
     8     5    27    1
     9     5    28    1
    10     6    18    1
    11     6     7    1
    12     6    15    1
    13     7     8    1
    14     7    29    1
    15     7    30    1
    16     8    14   ar
    17     8     9   ar
    18     9    10   ar
    19     9    31    1
    20    10    11   ar
    21    10    32    1
    22    11    12    1
    23    11    13   ar
    24    13    14   ar
    25    13    33    1
    26    14    34    1
    27    15    16    1
    28    15    35    1
    29    15    36    1
    30    16    17    1
    31    16    37    1
    32    16    38    1
    33    17    18    1
    34    17    39    1
    35    17    40    1
    36    18    19    1
    37    18    20    1
    38    20    41    1
    39    21    25    1
    40    21    22    2
    41    22    23    1
    42    22    42    1
    43    23    24    1
    44    24    25    2
    45    24    43    1
    46    25    44    1
@<TRIPOS>SUBSTRUCTURE
     1 ZINC000560467340        1 TEMP              0 ****  ****    0 ROOT


##########                                Name:    ZINC000956479608
##########                DOCK_Rotatable_Bonds:                   5
##########                         Heavy_Atoms:                  25
##########                    Molecular_Weight:             345.442
##########                DOCK_Rotatable_Bonds:                   5
##########                       Formal_Charge:          -0.0100001
##########                     HBond_Acceptors:                   6
##########                        HBond_Donors:                   1
##########                         Heavy_Atoms:                  25
##########                          Grid_Score:          -30.861858
##########                     Grid_vdw_energy:          -30.870234
##########                      Grid_es_energy:            0.008375
##########           Internal_energy_repulsive:           34.844040

@<TRIPOS>MOLECULE
ZINC000956479608
 52 55 1 0 0
SMALL
USER_CHARGES


@<TRIPOS>ATOM
      1 C1        -14.7668   -2.3814   59.4203 C.3     1  ZINC000956479608   -0.0900
      2 C2        -14.4523   -3.6015   58.5933 C.2     1  ZINC000956479608   -0.1100
      3 C3        -13.2966   -3.8893   57.9199 C.2     1  ZINC000956479608   -0.1000
      4 C4        -12.0800   -3.0581   57.8511 C.2     1  ZINC000956479608    0.6100
      5 O5        -11.1504   -3.3983   57.1451 O.2     1  ZINC000956479608   -0.5000
      6 N6        -11.9989   -1.9215   58.5708 N.am    1  ZINC000956479608   -0.7100
      7 C7        -10.7899   -1.0968   58.5038 C.3     1  ZINC000956479608    0.1800
      8 C8        -10.5569   -0.6500   57.0591 C.3     1  ZINC000956479608   -0.1700
      9 C9        -10.9624    0.1344   59.3964 C.3     1  ZINC000956479608   -0.1500
     10 C10       -11.2296   -0.3168   60.8357 C.3     1  ZINC000956479608    0.1100
     11 N11       -10.1501   -1.2204   61.2562 N.am    1  ZINC000956479608   -0.6100
     12 C12        -9.4578   -0.9833   62.3879 C.2     1  ZINC000956479608    0.5500
     13 O13        -8.5679   -1.7360   62.7234 O.2     1  ZINC000956479608   -0.5400
     14 C14        -9.7893    0.2171   63.2366 C.3     1  ZINC000956479608   -0.1900
     15 H15        -9.5192    1.1834   62.8107 H       1  ZINC000956479608    0.1200
     16 C16       -11.0501    0.1506   64.0885 C.3     1  ZINC000956479608   -0.1100
     17 H17       -11.6165   -0.7787   64.0292 H       1  ZINC000956479608    0.1000
     18 C18       -11.8974    1.3982   64.2847 C.3     1  ZINC000956479608   -0.0900
     19 C19       -11.0228    2.5787   64.7070 C.3     1  ZINC000956479608   -0.1200
     20 C20       -10.2284    2.1766   65.9549 C.3     1  ZINC000956479608   -0.1200
     21 C21        -9.1101    1.2229   65.5342 C.3     1  ZINC000956479608   -0.0900
     22 C22        -9.6869    0.0592   64.7615 C.3     1  ZINC000956479608   -0.1100
     23 H23        -9.4089   -0.9289   65.1281 H       1  ZINC000956479608    0.1100
     24 C24        -9.8400   -2.3878   60.4196 C.3     1  ZINC000956479608    0.1000
     25 C25        -9.5884   -1.9135   58.9849 C.3     1  ZINC000956479608   -0.1400
     26 O26       -13.4942   -5.0850   57.3330 O.3     1  ZINC000956479608    0.1200
     27 N27       -14.5958   -5.5199   57.5749 N.2     1  ZINC000956479608   -0.3400
     28 C28       -15.2797   -4.7175   58.3376 C.2     1  ZINC000956479608   -0.0100
     29 H29       -14.4684   -2.5564   60.4540 H       1  ZINC000956479608    0.0800
     30 H30       -14.2218   -1.5242   59.0250 H       1  ZINC000956479608    0.0900
     31 H31       -15.8375   -2.1814   59.3801 H       1  ZINC000956479608    0.0800
     32 H32       -12.7409   -1.6494   59.1330 H       1  ZINC000956479608    0.4100
     33 H33       -11.4129   -0.0688   56.7161 H       1  ZINC000956479608    0.0800
     34 H34        -9.6575   -0.0365   57.0091 H       1  ZINC000956479608    0.0700
     35 H35       -10.4346   -1.5267   56.4229 H       1  ZINC000956479608    0.0600
     36 H36       -10.0538    0.7357   59.3663 H       1  ZINC000956479608    0.0800
     37 H37       -11.8039    0.7278   59.0389 H       1  ZINC000956479608    0.1000
     38 H38       -11.2549    0.5527   61.4924 H       1  ZINC000956479608    0.0900
     39 H39       -12.1842   -0.8409   60.8831 H       1  ZINC000956479608    0.0600
     40 H40       -12.4020    1.6409   63.3495 H       1  ZINC000956479608    0.0700
     41 H41       -12.6432    1.2087   65.0566 H       1  ZINC000956479608    0.0700
     42 H42       -10.3343    2.8312   63.9006 H       1  ZINC000956479608    0.0600
     43 H43       -11.6534    3.4379   64.9357 H       1  ZINC000956479608    0.0700
     44 H44        -9.7974    3.0652   66.4164 H       1  ZINC000956479608    0.0700
     45 H45       -10.8886    1.6766   66.6637 H       1  ZINC000956479608    0.0700
     46 H46        -8.3997    1.7557   64.9021 H       1  ZINC000956479608    0.0700
     47 H47        -8.5956    0.8554   66.4221 H       1  ZINC000956479608    0.0700
     48 H48        -8.9484   -2.8847   60.8019 H       1  ZINC000956479608    0.0900
     49 H49       -10.6812   -3.0808   60.4331 H       1  ZINC000956479608    0.0700
     50 H50        -9.4519   -2.7775   58.3347 H       1  ZINC000956479608    0.0900
     51 H51        -8.6926   -1.2928   58.9588 H       1  ZINC000956479608    0.0900
     52 H52       -16.2862   -4.8709   58.6978 H       1  ZINC000956479608    0.2000
@<TRIPOS>BOND
     1     1     2    1
     2     1    29    1
     3     1    30    1
     4     1    31    1
     5     2    28    1
     6     2     3    2
     7     3     4    1
     8     3    26    1
     9     4     5    2
    10     4     6   am
    11     6     7    1
    12     6    32    1
    13     7    25    1
    14     7     8    1
    15     7     9    1
    16     8    33    1
    17     8    34    1
    18     8    35    1
    19     9    10    1
    20     9    36    1
    21     9    37    1
    22    10    11    1
    23    10    38    1
    24    10    39    1
    25    11    12   am
    26    11    24    1
    27    12    13    2
    28    12    14    1
    29    14    15    1
    30    14    22    1
    31    14    16    1
    32    16    17    1
    33    16    22    1
    34    16    18    1
    35    18    19    1
    36    18    40    1
    37    18    41    1
    38    19    20    1
    39    19    42    1
    40    19    43    1
    41    20    21    1
    42    20    44    1
    43    20    45    1
    44    21    22    1
    45    21    46    1
    46    21    47    1
    47    22    23    1
    48    24    25    1
    49    24    48    1
    50    24    49    1
    51    25    50    1
    52    25    51    1
    53    26    27    1
    54    27    28    2
    55    28    52    1
@<TRIPOS>SUBSTRUCTURE
     1 ZINC000956479608        1 TEMP              0 ****  ****    0 ROOT


##########                                Name:    ZINC001053433946
##########                DOCK_Rotatable_Bonds:                   6
##########                         Heavy_Atoms:                  24
##########                    Molecular_Weight:             337.419
##########                DOCK_Rotatable_Bonds:                   6
##########                       Formal_Charge:               -0.02
##########                     HBond_Acceptors:                   7
##########                        HBond_Donors:                   2
##########                         Heavy_Atoms:                  24
##########                          Grid_Score:          -30.848619
##########                     Grid_vdw_energy:          -31.547792
##########                      Grid_es_energy:            0.699173
##########           Internal_energy_repulsive:           15.339182

@<TRIPOS>MOLECULE
ZINC001053433946
 51 54 1 0 0
SMALL
USER_CHARGES


@<TRIPOS>ATOM
      1 N1        -10.6263   -3.1971   60.6242 N.am    1  ZINC001053433946   -0.8300
      2 C2         -9.8118   -3.2195   59.5507 C.2     1  ZINC001053433946    0.5600
      3 O3         -8.9409   -4.0594   59.4675 O.2     1  ZINC001053433946   -0.5500
      4 C4         -9.9833   -2.2009   58.4534 C.3     1  ZINC001053433946   -0.1600
      5 H5         -9.1113   -1.5802   58.2476 H       1  ZINC001053433946    0.1400
      6 C6        -11.3621   -1.5562   58.2971 C.3     1  ZINC001053433946   -0.1300
      7 C7        -10.8750   -2.5811   57.2696 C.3     1  ZINC001053433946   -0.1700
      8 H8        -10.5899   -2.2102   56.2851 H       1  ZINC001053433946    0.1400
      9 C9        -11.5153   -3.9451   57.2899 C.2     1  ZINC001053433946    0.5400
     10 O10       -10.8687   -4.9135   57.6289 O.2     1  ZINC001053433946   -0.5200
     11 N11       -12.8066   -4.0887   56.9314 N.am    1  ZINC001053433946   -0.6100
     12 C12       -13.4550   -5.4093   56.9426 C.3     1  ZINC001053433946    0.0700
     13 C13       -14.1091   -5.6478   55.5777 C.3     1  ZINC001053433946    0.0500
     14 O14       -14.9830   -4.5561   55.2736 O.3     1  ZINC001053433946   -0.3400
     15 C15       -14.3301   -3.2909   55.2146 C.3     1  ZINC001053433946    0.0800
     16 C16       -13.4611   -3.1012   53.9641 C.3     1  ZINC001053433946   -0.0100
     17 N17       -14.6706   -2.5215   53.3371 N.3     1  ZINC001053433946   -0.4700
     18 C18       -14.3370   -1.3184   52.5629 C.3     1  ZINC001053433946    0.0200
     19 C19       -14.2906   -1.6669   51.0738 C.3     1  ZINC001053433946   -0.1200
     20 H20       -13.5566   -2.4552   50.9069 H       1  ZINC001053433946    0.0800
     21 C21       -15.6714   -2.1482   50.6175 C.3     1  ZINC001053433946   -0.1200
     22 C22       -15.6330   -2.4196   49.1104 C.3     1  ZINC001053433946   -0.1600
     23 C23       -15.1912   -1.1477   48.3819 C.3     1  ZINC001053433946    0.0600
     24 O24       -13.9143   -0.7370   48.8752 O.3     1  ZINC001053433946   -0.3800
     25 C25       -13.8990   -0.4245   50.2695 C.3     1  ZINC001053433946    0.0700
     26 C26       -15.2143   -2.1629   54.6667 C.3     1  ZINC001053433946    0.0200
     27 C27       -13.6153   -2.9273   56.5215 C.3     1  ZINC001053433946    0.1000
     28 H28       -10.5151   -3.8521   61.3310 H       1  ZINC001053433946    0.4000
     29 H29       -11.3211   -2.5237   60.6920 H       1  ZINC001053433946    0.4000
     30 H30       -12.1451   -1.8689   58.9879 H       1  ZINC001053433946    0.1100
     31 H31       -11.3970   -0.5115   57.9881 H       1  ZINC001053433946    0.1200
     32 H32       -12.7088   -6.1814   57.1302 H       1  ZINC001053433946    0.1000
     33 H33       -14.2161   -5.4362   57.7225 H       1  ZINC001053433946    0.0800
     34 H34       -13.3369   -5.7198   54.8119 H       1  ZINC001053433946    0.0600
     35 H35       -14.6816   -6.5750   55.6058 H       1  ZINC001053433946    0.1100
     36 H36       -12.6493   -2.3862   54.0972 H       1  ZINC001053433946    0.0800
     37 H37       -13.1356   -4.0367   53.5090 H       1  ZINC001053433946    0.0900
     38 H38       -15.0955   -0.5545   52.7338 H       1  ZINC001053433946    0.0500
     39 H39       -13.3642   -0.9416   52.8784 H       1  ZINC001053433946    0.0800
     40 H40       -15.9311   -3.0652   51.1466 H       1  ZINC001053433946    0.0700
     41 H41       -16.4143   -1.3797   50.8308 H       1  ZINC001053433946    0.0700
     42 H42       -14.9259   -3.2227   48.9028 H       1  ZINC001053433946    0.0700
     43 H43       -16.6261   -2.7096   48.7671 H       1  ZINC001053433946    0.0700
     44 H44       -15.1208   -1.3471   47.3127 H       1  ZINC001053433946    0.0900
     45 H45       -15.9201   -0.3565   48.5571 H       1  ZINC001053433946    0.0500
     46 H46       -14.6110    0.3761   50.4705 H       1  ZINC001053433946    0.0500
     47 H47       -12.8987   -0.1027   50.5590 H       1  ZINC001053433946    0.1000
     48 H48       -16.2827   -2.3521   54.7703 H       1  ZINC001053433946    0.1000
     49 H49       -14.9217   -1.1699   55.0080 H       1  ZINC001053433946    0.0900
     50 H50       -14.3511   -2.6932   57.2909 H       1  ZINC001053433946    0.0800
     51 H51       -12.9653   -2.0675   56.3589 H       1  ZINC001053433946    0.1000
@<TRIPOS>BOND
     1     1     2   am
     2     1    28    1
     3     1    29    1
     4     2     3    2
     5     2     4    1
     6     4     5    1
     7     4     7    1
     8     4     6    1
     9     6     7    1
    10     6    30    1
    11     6    31    1
    12     7     8    1
    13     7     9    1
    14     9    10    2
    15     9    11   am
    16    11    27    1
    17    11    12    1
    18    12    13    1
    19    12    32    1
    20    12    33    1
    21    13    14    1
    22    13    34    1
    23    13    35    1
    24    14    15    1
    25    15    26    1
    26    15    16    1
    27    15    27    1
    28    16    17    1
    29    16    36    1
    30    16    37    1
    31    17    18    1
    32    17    26    1
    33    18    19    1
    34    18    38    1
    35    18    39    1
    36    19    20    1
    37    19    25    1
    38    19    21    1
    39    21    22    1
    40    21    40    1
    41    21    41    1
    42    22    23    1
    43    22    42    1
    44    22    43    1
    45    23    24    1
    46    23    44    1
    47    23    45    1
    48    24    25    1
    49    25    46    1
    50    25    47    1
    51    26    48    1
    52    26    49    1
    53    27    50    1
    54    27    51    1
@<TRIPOS>SUBSTRUCTURE
     1 ZINC001053433946        1 TEMP              0 ****  ****    0 ROOT


##########                                Name:    ZINC000458730620
##########                DOCK_Rotatable_Bonds:                   9
##########                         Heavy_Atoms:                  25
##########                    Molecular_Weight:              375.44
##########                DOCK_Rotatable_Bonds:                   9
##########                       Formal_Charge:        -1.86265e-07
##########                     HBond_Acceptors:                   9
##########                        HBond_Donors:                   3
##########                         Heavy_Atoms:                  25
##########                          Grid_Score:          -30.821520
##########                     Grid_vdw_energy:          -29.593456
##########                      Grid_es_energy:           -1.228064
##########           Internal_energy_repulsive:           40.438900

@<TRIPOS>MOLECULE
ZINC000458730620
 48 49 1 0 0
SMALL
USER_CHARGES


@<TRIPOS>ATOM
      1 C1        -12.5346    2.3337   62.1736 C.3     1  ZINC000458730620   -0.1600
      2 C2        -12.1869    0.8440   62.2034 C.3     1  ZINC000458730620    0.2000
      3 C3        -13.4622    0.0189   62.0196 C.3     1  ZINC000458730620   -0.1600
      4 N4        -11.2482    0.5399   61.1205 N.am    1  ZINC000458730620   -0.7400
      5 C5        -10.7098   -0.6917   61.0214 C.2     1  ZINC000458730620    0.7100
      6 O6        -11.0019   -1.5500   61.8317 O.2     1  ZINC000458730620   -0.5800
      7 N7         -9.8475   -0.9719   60.0242 N.am    1  ZINC000458730620   -0.7500
      8 C8         -9.2636   -2.3111   59.9155 C.3     1  ZINC000458730620    0.1300
      9 C9        -10.2841   -3.2631   59.2884 C.3     1  ZINC000458730620    0.1000
     10 N10       -10.3744   -3.0033   57.8495 N.am    1  ZINC000458730620   -1.1100
     11 S11       -11.3119   -3.9744   56.8900 S.o2    1  ZINC000458730620    2.7000
     12 O12       -11.3128   -3.3816   55.5985 O.2     1  ZINC000458730620   -0.9400
     13 O13       -10.8868   -5.3085   57.1325 O.2     1  ZINC000458730620   -0.9400
     14 C14       -12.9645   -3.8618   57.4905 C.ar    1  ZINC000458730620   -0.7300
     15 C15       -13.3918   -2.7112   58.1255 C.ar    1  ZINC000458730620    0.0400
     16 C16       -14.6882   -2.6213   58.5966 C.ar    1  ZINC000458730620   -0.1800
     17 C17       -15.5601   -3.6841   58.4327 C.ar    1  ZINC000458730620    0.1900
     18 F18       -16.8273   -3.5957   58.8929 F       1  ZINC000458730620   -0.1200
     19 C19       -15.1332   -4.8373   57.7967 C.ar    1  ZINC000458730620   -0.2100
     20 C20       -13.8365   -4.9242   57.3208 C.ar    1  ZINC000458730620    0.2200
     21 F21       -13.4186   -6.0490   56.7000 F       1  ZINC000458730620   -0.1100
     22 C22       -11.5442    0.4971   63.5478 C.3     1  ZINC000458730620   -0.1100
     23 C23       -10.0575    0.8795   63.6368 C.3     1  ZINC000458730620   -0.1400
     24 C24       -10.3407    1.3306   65.0794 C.3     1  ZINC000458730620   -0.1400
     25 C25       -11.7989    1.5475   64.6417 C.3     1  ZINC000458730620   -0.1400
     26 H26       -13.2796    2.5482   62.9398 H       1  ZINC000458730620    0.0600
     27 H27       -11.6363    2.9204   62.3661 H       1  ZINC000458730620    0.0500
     28 H28       -12.9354    2.5937   61.1940 H       1  ZINC000458730620    0.0800
     29 H29       -13.9200    0.2661   61.0618 H       1  ZINC000458730620    0.0800
     30 H30       -13.2145   -1.0423   62.0408 H       1  ZINC000458730620    0.0500
     31 H31       -14.1606    0.2452   62.8254 H       1  ZINC000458730620    0.0600
     32 H32       -11.0143    1.2249   60.4748 H       1  ZINC000458730620    0.3900
     33 H33        -9.6135   -0.2869   59.3786 H       1  ZINC000458730620    0.4000
     34 H34        -8.3728   -2.2694   59.2888 H       1  ZINC000458730620    0.0800
     35 H35        -8.9930   -2.6712   60.9081 H       1  ZINC000458730620    0.0800
     36 H36        -9.9685   -4.2934   59.4525 H       1  ZINC000458730620    0.0900
     37 H37       -11.2595   -3.1043   59.7483 H       1  ZINC000458730620    0.0700
     38 H38        -9.8852   -2.2625   57.4588 H       1  ZINC000458730620    0.4300
     39 H39       -12.7121   -1.8818   58.2540 H       1  ZINC000458730620    0.1700
     40 H40       -15.0209   -1.7217   59.0930 H       1  ZINC000458730620    0.1600
     41 H41       -15.8127   -5.6669   57.6685 H       1  ZINC000458730620    0.1600
     42 H42       -11.7535   -0.5242   63.8660 H       1  ZINC000458730620    0.1100
     43 H43        -9.3823    0.0264   63.5708 H       1  ZINC000458730620    0.0700
     44 H44        -9.7760    1.6958   62.9714 H       1  ZINC000458730620    0.0800
     45 H45       -10.2197    0.5371   65.8168 H       1  ZINC000458730620    0.0800
     46 H46        -9.8271    2.2507   65.3581 H       1  ZINC000458730620    0.0700
     47 H47       -11.9936    2.5463   64.2511 H       1  ZINC000458730620    0.0800
     48 H48       -12.5298    1.2335   65.3869 H       1  ZINC000458730620    0.0700
@<TRIPOS>BOND
     1     1     2    1
     2     1    26    1
     3     1    27    1
     4     1    28    1
     5     2     3    1
     6     2     4    1
     7     2    22    1
     8     3    29    1
     9     3    30    1
    10     3    31    1
    11     4     5   am
    12     4    32    1
    13     5     6    2
    14     5     7   am
    15     7     8    1
    16     7    33    1
    17     8     9    1
    18     8    34    1
    19     8    35    1
    20     9    10    1
    21     9    36    1
    22     9    37    1
    23    10    11   am
    24    10    38    1
    25    11    12    2
    26    11    13    2
    27    11    14    1
    28    14    20   ar
    29    14    15   ar
    30    15    16   ar
    31    15    39    1
    32    16    17   ar
    33    16    40    1
    34    17    18    1
    35    17    19   ar
    36    19    20   ar
    37    19    41    1
    38    20    21    1
    39    22    25    1
    40    22    23    1
    41    22    42    1
    42    23    24    1
    43    23    43    1
    44    23    44    1
    45    24    25    1
    46    24    45    1
    47    24    46    1
    48    25    47    1
    49    25    48    1
@<TRIPOS>SUBSTRUCTURE
     1 ZINC000458730620        1 TEMP              0 ****  ****    0 ROOT


##########                                Name:    ZINC000047262406
##########                DOCK_Rotatable_Bonds:                   6
##########                         Heavy_Atoms:                  28
##########                    Molecular_Weight:             417.919
##########                DOCK_Rotatable_Bonds:                   6
##########                       Formal_Charge:          -0.0100002
##########                     HBond_Acceptors:                   9
##########                        HBond_Donors:                   1
##########                         Heavy_Atoms:                  28
##########                          Grid_Score:          -30.808554
##########                     Grid_vdw_energy:          -30.691999
##########                      Grid_es_energy:           -0.116555
##########           Internal_energy_repulsive:           10.035690

@<TRIPOS>MOLECULE
ZINC000047262406
 48 51 1 0 0
SMALL
USER_CHARGES


@<TRIPOS>ATOM
      1 C1        -13.7082   -3.0202   53.4109 C.3     1  ZINC000047262406   -0.1500
      2 C2        -13.0169   -1.6743   53.6385 C.3     1  ZINC000047262406    0.1800
      3 H3        -13.6195   -0.8779   53.2016 H       1  ZINC000047262406    0.0800
      4 C4        -11.6581   -1.6911   52.9871 C.2     1  ZINC000047262406    0.1700
      5 N5        -11.0549   -2.7353   52.4933 N.2     1  ZINC000047262406   -0.2500
      6 N6         -9.9115   -2.3879   52.0166 N.2     1  ZINC000047262406   -0.2700
      7 C7         -9.7440   -1.0951   52.1919 C.2     1  ZINC000047262406    0.2400
      8 C8         -8.5718   -0.3042   51.7884 C.2     1  ZINC000047262406   -0.1500
      9 C9         -8.3905    1.0211   52.0426 C.2     1  ZINC000047262406   -0.0600
     10 C10        -7.2077    1.5373   51.5613 C.2     1  ZINC000047262406   -0.1400
     11 C11        -6.4237    0.6631   50.9220 C.2     1  ZINC000047262406   -0.1900
     12 S12        -7.1807   -0.9237   50.9082 S.3     1  ZINC000047262406    0.1700
     13 O13       -10.8516   -0.6294   52.8054 O.3     1  ZINC000047262406   -0.2200
     14 N14       -12.8657   -1.4391   55.0806 N.3     1  ZINC000047262406   -0.5200
     15 C15       -12.9121   -0.0038   55.3874 C.3     1  ZINC000047262406    0.0500
     16 C16       -12.8982    0.1956   56.9047 C.3     1  ZINC000047262406   -0.1000
     17 C17       -11.6261   -0.4287   57.4850 C.3     1  ZINC000047262406   -0.1100
     18 C18       -11.6355   -0.2883   58.9854 C.2     1  ZINC000047262406    0.5100
     19 O19       -12.4554   -0.8905   59.6457 O.2     1  ZINC000047262406   -0.4600
     20 N20       -10.7326    0.5064   59.5936 N.am    1  ZINC000047262406   -0.6600
     21 C21       -10.7414    0.6363   60.9821 C.ar    1  ZINC000047262406    0.3600
     22 C22        -9.9330   -0.1883   61.7555 C.ar    1  ZINC000047262406   -0.2000
     23 C23        -9.9505   -0.0491   63.1324 C.ar    1  ZINC000047262406   -0.0400
     24 C24       -10.7803    0.9148   63.6902 C.ar    1  ZINC000047262406   -0.1200
     25 Cl25      -10.8400    1.1315   65.4116 Cl      1  ZINC000047262406   -0.0500
     26 C26       -11.5576    1.7003   62.8598 C.ar    1  ZINC000047262406    0.1500
     27 N27       -11.5154    1.5473   61.5504 N.ar    1  ZINC000047262406   -0.4600
     28 C28       -11.5783   -1.9125   57.1101 C.3     1  ZINC000047262406   -0.1100
     29 C29       -11.6305   -2.0507   55.5870 C.3     1  ZINC000047262406    0.0600
     30 H30       -14.6910   -3.0081   53.8822 H       1  ZINC000047262406    0.0800
     31 H31       -13.8204   -3.1948   52.3409 H       1  ZINC000047262406    0.0700
     32 H32       -13.1056   -3.8166   53.8478 H       1  ZINC000047262406    0.0800
     33 H33        -9.1145    1.6182   52.5772 H       1  ZINC000047262406    0.1600
     34 H34        -6.9334    2.5739   51.6906 H       1  ZINC000047262406    0.1600
     35 H35        -5.4650    0.8963   50.4827 H       1  ZINC000047262406    0.1800
     36 H36       -12.0448    0.4896   54.9484 H       1  ZINC000047262406    0.0400
     37 H37       -13.8234    0.4271   54.9729 H       1  ZINC000047262406    0.0900
     38 H38       -12.9167    1.2615   57.1319 H       1  ZINC000047262406    0.0800
     39 H39       -13.7724   -0.2858   57.3430 H       1  ZINC000047262406    0.0900
     40 H40       -10.7523    0.0793   57.0771 H       1  ZINC000047262406    0.1000
     41 H41       -10.0769    0.9881   59.0654 H       1  ZINC000047262406    0.4200
     42 H42        -9.2998   -0.9280   61.2883 H       1  ZINC000047262406    0.1500
     43 H43        -9.3333   -0.6761   63.7588 H       1  ZINC000047262406    0.1500
     44 H44       -12.2049    2.4511   63.2884 H       1  ZINC000047262406    0.1700
     45 H45       -10.6539   -2.3527   57.4841 H       1  ZINC000047262406    0.0700
     46 H46       -12.4318   -2.4271   57.5517 H       1  ZINC000047262406    0.0800
     47 H47       -11.6110   -3.1067   55.3173 H       1  ZINC000047262406    0.0700
     48 H48       -10.7693   -1.5478   55.1469 H       1  ZINC000047262406    0.0400
@<TRIPOS>BOND
     1     1     2    1
     2     1    30    1
     3     1    31    1
     4     1    32    1
     5     2     3    1
     6     2     4    1
     7     2    14    1
     8     4    13    1
     9     4     5    2
    10     5     6    1
    11     6     7    2
    12     7     8    1
    13     7    13    1
    14     8    12    1
    15     8     9    2
    16     9    10    1
    17     9    33    1
    18    10    11    2
    19    10    34    1
    20    11    12    1
    21    11    35    1
    22    14    29    1
    23    14    15    1
    24    15    16    1
    25    15    36    1
    26    15    37    1
    27    16    17    1
    28    16    38    1
    29    16    39    1
    30    17    18    1
    31    17    28    1
    32    17    40    1
    33    18    19    2
    34    18    20   am
    35    20    21    1
    36    20    41    1
    37    21    27   ar
    38    21    22   ar
    39    22    23   ar
    40    22    42    1
    41    23    24   ar
    42    23    43    1
    43    24    25    1
    44    24    26   ar
    45    26    27   ar
    46    26    44    1
    47    28    29    1
    48    28    45    1
    49    28    46    1
    50    29    47    1
    51    29    48    1
@<TRIPOS>SUBSTRUCTURE
     1 ZINC000047262406        1 TEMP              0 ****  ****    0 ROOT


##########                                Name:    ZINC001039666729
##########                DOCK_Rotatable_Bonds:                   3
##########                         Heavy_Atoms:                  25
##########                    Molecular_Weight:             344.376
##########                DOCK_Rotatable_Bonds:                   3
##########                       Formal_Charge:          -0.0199998
##########                     HBond_Acceptors:                  10
##########                        HBond_Donors:                   2
##########                         Heavy_Atoms:                  25
##########                          Grid_Score:          -30.801968
##########                     Grid_vdw_energy:          -30.700687
##########                      Grid_es_energy:           -0.101279
##########           Internal_energy_repulsive:           22.250517

@<TRIPOS>MOLECULE
ZINC001039666729
 45 47 1 0 0
SMALL
USER_CHARGES


@<TRIPOS>ATOM
      1 C1        -11.6319    0.9468   54.7554 C.3     1  ZINC001039666729   -0.1100
      2 C2        -10.9773    0.4037   55.9995 C.ar    1  ZINC001039666729    0.2200
      3 C3        -10.0371    1.1577   56.6835 C.ar    1  ZINC001039666729   -0.3000
      4 C4         -9.4589    0.6208   57.8233 C.ar    1  ZINC001039666729    0.1900
      5 N5         -9.8194   -0.5878   58.2215 N.ar    1  ZINC001039666729   -0.5800
      6 C6        -10.7218   -1.2829   57.5444 C.ar    1  ZINC001039666729    0.6000
      7 N7        -11.0762   -2.5446   57.9897 N.pl3   1  ZINC001039666729   -0.5900
      8 C8        -10.1818   -3.4171   58.8104 C.3     1  ZINC001039666729    0.1200
      9 C9        -10.2713   -2.9453   60.2634 C.3     1  ZINC001039666729    0.0900
     10 N10       -11.6680   -3.1295   60.7305 N.am    1  ZINC001039666729   -0.7400
     11 C11       -12.4376   -1.9973   60.6771 C.2     1  ZINC001039666729    0.5200
     12 O12       -11.9750   -0.9513   60.2737 O.2     1  ZINC001039666729   -0.5200
     13 C13       -13.8723   -2.0812   61.1307 C.3     1  ZINC001039666729   -0.1500
     14 C14       -14.7974   -1.7247   59.9653 C.3     1  ZINC001039666729    0.1100
     15 N15       -14.4955   -2.6368   58.8318 N.am    1  ZINC001039666729   -0.6100
     16 C16       -15.0933   -3.8355   58.6832 C.2     1  ZINC001039666729    0.6100
     17 O17       -15.9177   -4.2084   59.4949 O.2     1  ZINC001039666729   -0.5200
     18 C18       -14.7465   -4.6968   57.5331 C.2     1  ZINC001039666729   -0.0400
     19 N19       -14.1681   -5.8876   57.5693 N.2     1  ZINC001039666729   -0.2500
     20 N20       -14.0352   -6.3140   56.3635 N.pl3   1  ZINC001039666729   -0.2300
     21 N21       -14.4978   -5.4638   55.5182 N.2     1  ZINC001039666729   -0.2800
     22 C22       -14.9673   -4.4260   56.1679 C.2     1  ZINC001039666729    0.0400
     23 C23       -13.4821   -2.1215   57.8750 C.3     1  ZINC001039666729    0.1100
     24 C24       -12.3981   -3.1834   57.7085 C.3     1  ZINC001039666729    0.1300
     25 N25       -11.2971   -0.7966   56.4547 N.ar    1  ZINC001039666729   -0.5700
     26 H26       -12.5343    1.4936   55.0289 H       1  ZINC001039666729    0.0800
     27 H27       -10.9412    1.6179   54.2448 H       1  ZINC001039666729    0.0800
     28 H28       -11.8938    0.1218   54.0929 H       1  ZINC001039666729    0.0800
     29 H29        -9.7607    2.1422   56.3360 H       1  ZINC001039666729    0.1400
     30 H30        -8.7227    1.1824   58.3791 H       1  ZINC001039666729    0.1600
     31 H31       -10.5102   -4.4539   58.7383 H       1  ZINC001039666729    0.0800
     32 H32        -9.1545   -3.3292   58.4565 H       1  ZINC001039666729    0.0900
     33 H33        -9.5961   -3.5353   60.8831 H       1  ZINC001039666729    0.0800
     34 H34        -9.9997   -1.8914   60.3245 H       1  ZINC001039666729    0.1000
     35 H35       -12.0077   -3.9810   61.0474 H       1  ZINC001039666729    0.4100
     36 H36       -14.0878   -3.0948   61.4687 H       1  ZINC001039666729    0.0800
     37 H37       -14.0355   -1.3823   61.9510 H       1  ZINC001039666729    0.1100
     38 H38       -15.8365   -1.8492   60.2700 H       1  ZINC001039666729    0.1100
     39 H39       -14.6245   -0.6922   59.6618 H       1  ZINC001039666729    0.0900
     40 H40       -13.6374   -7.1655   56.1235 H       1  ZINC001039666729    0.4700
     41 H41       -15.4224   -3.5430   55.7440 H       1  ZINC001039666729    0.2100
     42 H42       -13.9540   -1.9205   56.9132 H       1  ZINC001039666729    0.0800
     43 H43       -13.0401   -1.2052   58.2663 H       1  ZINC001039666729    0.1200
     44 H44       -12.4090   -3.5646   56.6874 H       1  ZINC001039666729    0.0700
     45 H45       -12.5709   -3.9998   58.4097 H       1  ZINC001039666729    0.0900
@<TRIPOS>BOND
     1     1     2    1
     2     1    26    1
     3     1    27    1
     4     1    28    1
     5     2    25   ar
     6     2     3   ar
     7     3     4   ar
     8     3    29    1
     9     4     5   ar
    10     4    30    1
    11     5     6   ar
    12     6     7    1
    13     6    25   ar
    14     7    24    1
    15     7     8    1
    16     8     9    1
    17     8    31    1
    18     8    32    1
    19     9    10    1
    20     9    33    1
    21     9    34    1
    22    10    11   am
    23    10    35    1
    24    11    12    2
    25    11    13    1
    26    13    14    1
    27    13    36    1
    28    13    37    1
    29    14    15    1
    30    14    38    1
    31    14    39    1
    32    15    16   am
    33    15    23    1
    34    16    17    2
    35    16    18    1
    36    18    22    1
    37    18    19    2
    38    19    20    1
    39    20    21    1
    40    20    40    1
    41    21    22    2
    42    22    41    1
    43    23    24    1
    44    23    42    1
    45    23    43    1
    46    24    44    1
    47    24    45    1
@<TRIPOS>SUBSTRUCTURE
     1 ZINC001039666729        1 TEMP              0 ****  ****    0 ROOT


##########                                Name:    ZINC000291574087
##########                DOCK_Rotatable_Bonds:                   8
##########                         Heavy_Atoms:                  23
##########                    Molecular_Weight:             387.249
##########                DOCK_Rotatable_Bonds:                   8
##########                       Formal_Charge:          -0.0400007
##########                     HBond_Acceptors:                   6
##########                        HBond_Donors:                   2
##########                         Heavy_Atoms:                  23
##########                          Grid_Score:          -30.783363
##########                     Grid_vdw_energy:          -30.811422
##########                      Grid_es_energy:            0.028059
##########           Internal_energy_repulsive:           22.351023

@<TRIPOS>MOLECULE
ZINC000291574087
 43 44 1 0 0
SMALL
USER_CHARGES


@<TRIPOS>ATOM
      1 C1        -13.2956    1.5809   64.4643 C.3     1  ZINC000291574087    0.0200
      2 O2        -12.0466    0.8872   64.4324 O.3     1  ZINC000291574087   -0.3700
      3 C3        -10.9711    1.6517   63.8838 C.3     1  ZINC000291574087    0.1400
      4 C4        -11.5051    2.5604   62.7748 C.3     1  ZINC000291574087   -0.1500
      5 C5         -9.9166    0.7063   63.3049 C.3     1  ZINC000291574087    0.0900
      6 N6        -10.5410   -0.1738   62.3141 N.am    1  ZINC000291574087   -0.6900
      7 C7         -9.9741   -1.3589   62.0131 C.2     1  ZINC000291574087    0.5100
      8 O8         -8.9456   -1.6964   62.5618 O.2     1  ZINC000291574087   -0.5100
      9 C9        -10.6117   -2.2568   61.0043 C.2     1  ZINC000291574087    0.5100
     10 O10       -10.3023   -3.4294   60.9538 O.2     1  ZINC000291574087   -0.4900
     11 N11       -11.5308   -1.7650   60.1500 N.am    1  ZINC000291574087   -0.6400
     12 C12       -12.1279   -2.6058   59.2052 C.ar    1  ZINC000291574087    0.1300
     13 C13       -13.4462   -3.0097   59.3681 C.ar    1  ZINC000291574087   -0.1000
     14 C14       -14.0338   -3.8399   58.4331 C.ar    1  ZINC000291574087   -0.0400
     15 C15       -15.4647   -4.2783   58.6101 C.3     1  ZINC000291574087   -0.1300
     16 C16       -13.3109   -4.2692   57.3345 C.ar    1  ZINC000291574087   -0.0900
     17 Br17      -14.1208   -5.4045   56.0573 Br      1  ZINC000291574087   -0.0300
     18 C18       -11.9966   -3.8692   57.1678 C.ar    1  ZINC000291574087   -0.1000
     19 C19       -11.4039   -3.0346   58.0970 C.ar    1  ZINC000291574087    0.0700
     20 F20       -10.1209   -2.6441   57.9345 F       1  ZINC000291574087   -0.1300
     21 C21       -10.3401    2.5071   64.9843 C.3     1  ZINC000291574087   -0.1900
     22 C22       -10.8829    2.3429   66.4052 C.3     1  ZINC000291574087   -0.1700
     23 C23        -9.5030    1.7889   66.0447 C.3     1  ZINC000291574087   -0.1600
     24 H24       -14.0599    0.9334   64.8942 H       1  ZINC000291574087    0.0900
     25 H25       -13.1966    2.4797   65.0730 H       1  ZINC000291574087    0.0400
     26 H26       -13.5830    1.8586   63.4502 H       1  ZINC000291574087    0.0500
     27 H27       -12.2564    3.2340   63.1871 H       1  ZINC000291574087    0.0700
     28 H28       -10.6848    3.1435   62.3563 H       1  ZINC000291574087    0.0800
     29 H29       -11.9547    1.9511   61.9907 H       1  ZINC000291574087    0.0700
     30 H30        -9.1286    1.2891   62.8280 H       1  ZINC000291574087    0.0900
     31 H31        -9.4888    0.1045   64.1068 H       1  ZINC000291574087    0.0800
     32 H32       -11.3625    0.0965   61.8747 H       1  ZINC000291574087    0.4200
     33 H33       -11.7782   -0.8280   60.1903 H       1  ZINC000291574087    0.4300
     34 H34       -14.0118   -2.6754   60.2252 H       1  ZINC000291574087    0.1600
     35 H35       -16.1268   -3.5626   58.1227 H       1  ZINC000291574087    0.0800
     36 H36       -15.6012   -5.2627   58.1624 H       1  ZINC000291574087    0.0800
     37 H37       -15.7011   -4.3265   59.6730 H       1  ZINC000291574087    0.0800
     38 H38       -11.4347   -4.2064   56.3092 H       1  ZINC000291574087    0.1500
     39 H39       -10.0194    3.5033   64.6797 H       1  ZINC000291574087    0.1100
     40 H40       -10.9196    3.2312   67.0359 H       1  ZINC000291574087    0.1000
     41 H41       -11.6896    1.6255   66.5561 H       1  ZINC000291574087    0.1000
     42 H42        -9.4019    0.7071   65.9583 H       1  ZINC000291574087    0.1000
     43 H43        -8.6319    2.3128   66.4380 H       1  ZINC000291574087    0.1000
@<TRIPOS>BOND
     1     1     2    1
     2     1    24    1
     3     1    25    1
     4     1    26    1
     5     2     3    1
     6     3     4    1
     7     3     5    1
     8     3    21    1
     9     4    27    1
    10     4    28    1
    11     4    29    1
    12     5     6    1
    13     5    30    1
    14     5    31    1
    15     6     7   am
    16     6    32    1
    17     7     8    2
    18     7     9    1
    19     9    10    2
    20     9    11   am
    21    11    12    1
    22    11    33    1
    23    12    19   ar
    24    12    13   ar
    25    13    14   ar
    26    13    34    1
    27    14    15    1
    28    14    16   ar
    29    15    35    1
    30    15    36    1
    31    15    37    1
    32    16    17    1
    33    16    18   ar
    34    18    19   ar
    35    18    38    1
    36    19    20    1
    37    21    23    1
    38    21    22    1
    39    21    39    1
    40    22    23    1
    41    22    40    1
    42    22    41    1
    43    23    42    1
    44    23    43    1
@<TRIPOS>SUBSTRUCTURE
     1 ZINC000291574087        1 TEMP              0 ****  ****    0 ROOT


##########                                Name:    ZINC000001174632
##########                DOCK_Rotatable_Bonds:                   6
##########                         Heavy_Atoms:                  29
##########                    Molecular_Weight:             385.419
##########                DOCK_Rotatable_Bonds:                   6
##########                       Formal_Charge:           0.0400005
##########                     HBond_Acceptors:                   5
##########                        HBond_Donors:                   1
##########                         Heavy_Atoms:                  29
##########                          Grid_Score:          -30.771982
##########                     Grid_vdw_energy:          -29.169380
##########                      Grid_es_energy:           -1.602602
##########           Internal_energy_repulsive:           24.679979

@<TRIPOS>MOLECULE
ZINC000001174632
 48 51 1 0 0
SMALL
USER_CHARGES


@<TRIPOS>ATOM
      1 C1        -15.5446    2.2295   58.6215 C.3     1  ZINC000001174632    0.0400
      2 O2        -15.2583    1.3133   59.7109 O.3     1  ZINC000001174632   -0.3500
      3 C3        -16.2033    1.1798   60.6624 C.2     1  ZINC000001174632    0.5200
      4 O4        -17.2384    1.8115   60.5835 O.2     1  ZINC000001174632   -0.5200
      5 C5        -15.9813    0.2679   61.7984 C.ar    1  ZINC000001174632   -0.2000
      6 C6        -16.9578    0.1261   62.7872 C.ar    1  ZINC000001174632   -0.0200
      7 C7        -16.7441   -0.7290   63.8469 C.ar    1  ZINC000001174632   -0.1800
      8 C8        -15.5646   -1.4503   63.9380 C.ar    1  ZINC000001174632   -0.0300
      9 C9        -14.5897   -1.3212   62.9696 C.ar    1  ZINC000001174632   -0.1900
     10 C10       -14.7889   -0.4688   61.8907 C.ar    1  ZINC000001174632    0.2600
     11 N11       -13.8098   -0.3374   60.9148 N.pl3   1  ZINC000001174632   -0.6500
     12 C12       -12.5914   -0.9443   61.0798 C.2     1  ZINC000001174632    0.2300
     13 C13       -12.1520   -2.0580   60.3902 C.2     1  ZINC000001174632   -0.1800
     14 C14       -12.9131   -2.7922   59.3551 C.ar    1  ZINC000001174632   -0.0600
     15 C15       -12.2899   -3.1702   58.1648 C.ar    1  ZINC000001174632   -0.0600
     16 C16       -13.0028   -3.8542   57.2026 C.ar    1  ZINC000001174632   -0.1500
     17 C17       -14.3383   -4.1665   57.4164 C.ar    1  ZINC000001174632    0.1400
     18 O18       -15.0374   -4.8409   56.4653 O.3     1  ZINC000001174632   -0.3200
     19 C19       -14.2792   -5.5582   55.4893 C.3     1  ZINC000001174632    0.0300
     20 C20       -14.9617   -3.7924   58.5989 C.ar    1  ZINC000001174632   -0.2100
     21 C21       -14.2543   -3.1135   59.5688 C.ar    1  ZINC000001174632   -0.0500
     22 C22       -10.8004   -2.3882   60.8597 C.2     1  ZINC000001174632    0.4500
     23 O23       -10.1052   -3.3074   60.4734 O.2     1  ZINC000001174632   -0.4100
     24 C24       -10.4427   -1.3830   61.8983 C.ar    1  ZINC000001174632   -0.1600
     25 C25        -9.3151   -1.1980   62.6759 C.ar    1  ZINC000001174632   -0.0500
     26 C26        -9.2647   -0.1457   63.5849 C.ar    1  ZINC000001174632   -0.1100
     27 C27       -10.3353    0.7124   63.7130 C.ar    1  ZINC000001174632   -0.0900
     28 C28       -11.4743    0.5359   62.9362 C.ar    1  ZINC000001174632   -0.0800
     29 C29       -11.5343   -0.5055   62.0219 C.ar    1  ZINC000001174632   -0.0600
     30 H30       -15.7014    3.2314   59.0210 H       1  ZINC000001174632    0.0700
     31 H31       -14.7043    2.2426   57.9274 H       1  ZINC000001174632    0.1100
     32 H32       -16.4430    1.9023   58.0981 H       1  ZINC000001174632    0.0700
     33 H33       -17.8789    0.6861   62.7217 H       1  ZINC000001174632    0.1400
     34 H34       -17.5001   -0.8370   64.6107 H       1  ZINC000001174632    0.1300
     35 H35       -15.4069   -2.1176   64.7724 H       1  ZINC000001174632    0.1300
     36 H36       -13.6728   -1.8865   63.0483 H       1  ZINC000001174632    0.1300
     37 H37       -13.9878    0.1837   60.1162 H       1  ZINC000001174632    0.4300
     38 H38       -11.2510   -2.9270   57.9974 H       1  ZINC000001174632    0.1300
     39 H39       -12.5213   -4.1471   56.2813 H       1  ZINC000001174632    0.1300
     40 H40       -13.6386   -4.8644   54.9450 H       1  ZINC000001174632    0.0600
     41 H41       -13.6632   -6.3076   55.9866 H       1  ZINC000001174632    0.0600
     42 H42       -14.9573   -6.0500   54.7919 H       1  ZINC000001174632    0.1000
     43 H43       -16.0011   -4.0368   58.7613 H       1  ZINC000001174632    0.1300
     44 H44       -14.7399   -2.8231   60.4887 H       1  ZINC000001174632    0.1300
     45 H45        -8.4746   -1.8692   62.5784 H       1  ZINC000001174632    0.1400
     46 H46        -8.3836   -0.0012   64.1926 H       1  ZINC000001174632    0.1400
     47 H47       -10.2893    1.5264   64.4212 H       1  ZINC000001174632    0.1400
     48 H48       -12.3101    1.2117   63.0411 H       1  ZINC000001174632    0.1300
@<TRIPOS>BOND
     1     1     2    1
     2     1    30    1
     3     1    31    1
     4     1    32    1
     5     2     3    1
     6     3     4    2
     7     3     5    1
     8     5    10   ar
     9     5     6   ar
    10     6     7   ar
    11     6    33    1
    12     7     8   ar
    13     7    34    1
    14     8     9   ar
    15     8    35    1
    16     9    10   ar
    17     9    36    1
    18    10    11    1
    19    11    12    1
    20    11    37    1
    21    12    29    1
    22    12    13    2
    23    13    14    1
    24    13    22    1
    25    14    21   ar
    26    14    15   ar
    27    15    16   ar
    28    15    38    1
    29    16    17   ar
    30    16    39    1
    31    17    18    1
    32    17    20   ar
    33    18    19    1
    34    19    40    1
    35    19    41    1
    36    19    42    1
    37    20    21   ar
    38    20    43    1
    39    21    44    1
    40    22    23    2
    41    22    24    1
    42    24    29   ar
    43    24    25   ar
    44    25    26   ar
    45    25    45    1
    46    26    27   ar
    47    26    46    1
    48    27    28   ar
    49    27    47    1
    50    28    29   ar
    51    28    48    1
@<TRIPOS>SUBSTRUCTURE
     1 ZINC000001174632        1 TEMP              0 ****  ****    0 ROOT


##########                                Name:    ZINC000854500114
##########                DOCK_Rotatable_Bonds:                   7
##########                         Heavy_Atoms:                  24
##########                    Molecular_Weight:             399.288
##########                DOCK_Rotatable_Bonds:                   7
##########                       Formal_Charge:          -0.0399992
##########                     HBond_Acceptors:                   7
##########                        HBond_Donors:                   2
##########                         Heavy_Atoms:                  24
##########                          Grid_Score:          -30.770994
##########                     Grid_vdw_energy:          -30.341061
##########                      Grid_es_energy:           -0.429933
##########           Internal_energy_repulsive:           79.608292

@<TRIPOS>MOLECULE
ZINC000854500114
 47 49 1 0 0
SMALL
USER_CHARGES


@<TRIPOS>ATOM
      1 O1        -13.1594   -0.7061   52.3780 O.2     1  ZINC000854500114   -0.5800
      2 C2        -13.4505   -1.5742   51.5792 C.2     1  ZINC000854500114    0.6600
      3 N3        -14.1276   -1.2582   50.4574 N.am    1  ZINC000854500114   -0.7100
      4 C4        -14.5176    0.1311   50.2040 C.3     1  ZINC000854500114    0.1600
      5 C5        -14.6359    0.3782   48.6860 C.3     1  ZINC000854500114   -0.1400
      6 C6        -16.1431    0.1847   48.3860 C.3     1  ZINC000854500114   -0.1300
      7 C7        -16.8222    0.8107   49.6293 C.3     1  ZINC000854500114   -0.1300
      8 C8        -15.9077    0.4060   50.8038 C.3     1  ZINC000854500114   -0.1300
      9 O9        -13.0921   -2.8509   51.8119 O.3     1  ZINC000854500114   -0.3600
     10 C10       -12.4889   -3.1418   53.1003 C.3     1  ZINC000854500114    0.1000
     11 C11       -13.5103   -3.8483   53.9937 C.3     1  ZINC000854500114    0.1500
     12 H12       -13.7404   -4.8301   53.5801 H       1  ZINC000854500114    0.0900
     13 C13       -14.7908   -3.0109   54.0716 C.3     1  ZINC000854500114   -0.1300
     14 C14       -15.7538   -3.6507   55.0743 C.3     1  ZINC000854500114   -0.1200
     15 C15       -15.1074   -3.6746   56.4612 C.3     1  ZINC000854500114   -0.1400
     16 C16       -13.8305   -4.5196   56.4104 C.3     1  ZINC000854500114    0.0900
     17 N17       -12.9587   -4.0010   55.3470 N.am    1  ZINC000854500114   -0.6100
     18 C18       -11.6796   -3.6672   55.6094 C.2     1  ZINC000854500114    0.5900
     19 O19       -10.9682   -3.2391   54.7205 O.2     1  ZINC000854500114   -0.4900
     20 C20       -11.1437   -3.8207   56.9712 C.2     1  ZINC000854500114   -0.0300
     21 C21       -10.8882   -2.8103   57.8820 C.2     1  ZINC000854500114   -0.1200
     22 C22       -10.3934   -3.4540   59.0195 C.2     1  ZINC000854500114    0.0200
     23 Br23       -9.8555   -2.6167   60.6275 Br      1  ZINC000854500114    0.0400
     24 N24       -10.3687   -4.7396   58.7741 N.2     1  ZINC000854500114   -0.2400
     25 N25       -10.8042   -4.9892   57.5918 N.pl3   1  ZINC000854500114   -0.3700
     26 H26       -14.3566   -1.9505   49.8178 H       1  ZINC000854500114    0.4000
     27 H27       -13.7830    0.8097   50.6375 H       1  ZINC000854500114    0.0900
     28 H28       -14.3251    1.3935   48.4394 H       1  ZINC000854500114    0.0800
     29 H29       -14.0405   -0.3488   48.1335 H       1  ZINC000854500114    0.0700
     30 H30       -16.4283    0.7192   47.4797 H       1  ZINC000854500114    0.0700
     31 H31       -16.3878   -0.8743   48.3042 H       1  ZINC000854500114    0.0700
     32 H32       -16.8645    1.8958   49.5350 H       1  ZINC000854500114    0.0700
     33 H33       -17.8224    0.3993   49.7653 H       1  ZINC000854500114    0.0700
     34 H34       -16.2921   -0.4942   51.2835 H       1  ZINC000854500114    0.0700
     35 H35       -15.8479    1.2187   51.5277 H       1  ZINC000854500114    0.0800
     36 H36       -11.6222   -3.7873   52.9583 H       1  ZINC000854500114    0.1000
     37 H37       -12.1751   -2.2111   53.5729 H       1  ZINC000854500114    0.0700
     38 H38       -14.5452   -2.0001   54.3973 H       1  ZINC000854500114    0.0800
     39 H39       -15.2609   -2.9729   53.0889 H       1  ZINC000854500114    0.0900
     40 H40       -16.6757   -3.0705   55.1133 H       1  ZINC000854500114    0.0800
     41 H41       -15.9796   -4.6700   54.7612 H       1  ZINC000854500114    0.0700
     42 H42       -14.8587   -2.6576   56.7643 H       1  ZINC000854500114    0.0700
     43 H43       -15.8028   -4.1091   57.1793 H       1  ZINC000854500114    0.0800
     44 H44       -13.3140   -4.4592   57.3685 H       1  ZINC000854500114    0.0800
     45 H45       -14.0872   -5.5570   56.1962 H       1  ZINC000854500114    0.0800
     46 H46       -11.0390   -1.7500   57.7431 H       1  ZINC000854500114    0.1700
     47 H47       -10.8753   -5.8725   57.1973 H       1  ZINC000854500114    0.4500
@<TRIPOS>BOND
     1     1     2    2
     2     2     3   am
     3     2     9    1
     4     3     4    1
     5     3    26    1
     6     4     8    1
     7     4     5    1
     8     4    27    1
     9     5     6    1
    10     5    28    1
    11     5    29    1
    12     6     7    1
    13     6    30    1
    14     6    31    1
    15     7     8    1
    16     7    32    1
    17     7    33    1
    18     8    34    1
    19     8    35    1
    20     9    10    1
    21    10    11    1
    22    10    36    1
    23    10    37    1
    24    11    12    1
    25    11    17    1
    26    11    13    1
    27    13    14    1
    28    13    38    1
    29    13    39    1
    30    14    15    1
    31    14    40    1
    32    14    41    1
    33    15    16    1
    34    15    42    1
    35    15    43    1
    36    16    17    1
    37    16    44    1
    38    16    45    1
    39    17    18   am
    40    18    19    2
    41    18    20    1
    42    20    25    1
    43    20    21    2
    44    21    22    1
    45    21    46    1
    46    22    23    1
    47    22    24    2
    48    24    25    1
    49    25    47    1
@<TRIPOS>SUBSTRUCTURE
     1 ZINC000854500114        1 TEMP              0 ****  ****    0 ROOT


##########                                Name:    ZINC000286156371
##########                DOCK_Rotatable_Bonds:                   7
##########                         Heavy_Atoms:                  25
##########                    Molecular_Weight:             350.418
##########                DOCK_Rotatable_Bonds:                   7
##########                       Formal_Charge:          0.00999908
##########                     HBond_Acceptors:                   8
##########                        HBond_Donors:                   2
##########                         Heavy_Atoms:                  25
##########                          Grid_Score:          -30.718964
##########                     Grid_vdw_energy:          -30.782974
##########                      Grid_es_energy:            0.064010
##########           Internal_energy_repulsive:           21.456211

@<TRIPOS>MOLECULE
ZINC000286156371
 51 53 1 0 0
SMALL
USER_CHARGES


@<TRIPOS>ATOM
      1 C1         -1.9269    2.9695   45.3288 C.3     1  <0>        -0.1800
      2 C2         -1.0059    1.9900   46.0591 C.3     1  <0>         0.1400
      3 C3         -1.3126    0.5630   45.6004 C.3     1  <0>        -0.1800
      4 C4          0.4521    2.3262   45.7394 C.3     1  <0>        -0.1400
      5 O5         -1.2243    2.0958   47.4906 O.3     1  <0>        -0.3600
      6 C6         -0.2780    1.5740   48.2936 C.2     1  <0>         0.6800
      7 O7          0.2940    0.5509   47.9732 O.2     1  <0>        -0.5600
      8 N8          0.0349    2.1863   49.4527 N.am    1  <0>        -0.5800
      9 C9          1.0462    1.7262   50.4218 C.3     1  <0>         0.0700
     10 C10         1.4642    3.0020   51.1946 C.3     1  <0>         0.0900
     11 H11         1.8493    2.7514   52.1830 H       1  <0>         0.0900
     12 O12         2.4212    3.7602   50.4520 O.3     1  <0>        -0.5500
     13 C13         0.1139    3.7592   51.2993 C.3     1  <0>        -0.1200
     14 C14        -0.5711    3.4273   49.9570 C.3     1  <0>         0.1500
     15 H15        -0.4100    4.2392   49.2480 H       1  <0>         0.1100
     16 C16        -2.0483    3.2209   50.1728 C.2     1  <0>         0.5200
     17 O17        -2.8344    4.0885   49.8563 O.2     1  <0>        -0.4900
     18 N18        -2.4957    2.0722   50.7175 N.am    1  <0>        -0.6300
     19 C19        -3.8696    1.8795   50.9167 C.2     1  <0>         0.3000
     20 N20        -4.5603    0.8214   50.5564 N.2     1  <0>        -0.3200
     21 N21        -5.8896    1.0211   50.9356 N.pl3   1  <0>        -0.3600
     22 C22        -7.0193    0.1073   50.7403 C.3     1  <0>         0.1400
     23 C23        -8.1603    0.5265   51.6733 C.3     1  <0>        -0.1400
     24 C24        -8.4328    2.0246   51.5089 C.3     1  <0>        -0.1300
     25 C25        -7.2530    2.8181   52.0857 C.3     1  <0>        -0.0600
     26 C26        -5.9768    2.2319   51.5340 C.2     1  <0>         0.0900
     27 C27        -4.7472    2.7820   51.5423 C.2     1  <0>        -0.2600
     28 H28        -2.9656    2.7300   45.5565 H       1  <0>         0.0900
     29 H29        -1.7084    3.9861   45.6556 H       1  <0>         0.0600
     30 H30        -1.7629    2.8901   44.2542 H       1  <0>         0.0700
     31 H31        -1.1486    0.4836   44.5258 H       1  <0>         0.0700
     32 H32        -0.6563   -0.1348   46.1205 H       1  <0>         0.0600
     33 H33        -2.3513    0.3235   45.8281 H       1  <0>         0.0900
     34 H34         0.6707    3.3428   46.0662 H       1  <0>         0.0700
     35 H35         1.1083    1.6284   46.2596 H       1  <0>         0.0700
     36 H36         0.6161    2.2467   44.6647 H       1  <0>         0.0800
     37 H37         0.6127    0.9946   51.1037 H       1  <0>         0.0800
     38 H38         1.9038    1.2998   49.9015 H       1  <0>         0.0900
     39 H39         3.2840    3.3313   50.3692 H       1  <0>         0.3900
     40 H40        -0.4731    3.3865   52.1388 H       1  <0>         0.1000
     41 H41         0.2799    4.8328   51.3899 H       1  <0>         0.1100
     42 H42        -1.8668    1.3787   50.9718 H       1  <0>         0.4200
     43 H43        -7.3561    0.1590   49.7050 H       1  <0>         0.0800
     44 H44        -6.7103   -0.9110   50.9757 H       1  <0>         0.0900
     45 H45        -9.0598   -0.0358   51.4222 H       1  <0>         0.0900
     46 H46        -7.8796    0.3197   52.7060 H       1  <0>         0.0800
     47 H47        -8.5475    2.2599   50.4509 H       1  <0>         0.0700
     48 H48        -9.3455    2.2895   52.0428 H       1  <0>         0.0800
     49 H49        -7.3345    3.8644   51.7914 H       1  <0>         0.0900
     50 H50        -7.2537    2.7400   53.1729 H       1  <0>         0.0900
     51 H51        -4.4835    3.7450   51.9539 H       1  <0>         0.1700
@<TRIPOS>BOND
     1     1     2    1
     2     1    28    1
     3     1    29    1
     4     1    30    1
     5     2     3    1
     6     2     4    1
     7     2     5    1
     8     3    31    1
     9     3    32    1
    10     3    33    1
    11     4    34    1
    12     4    35    1
    13     4    36    1
    14     5     6    1
    15     6     7    2
    16     6     8   am
    17     8    14    1
    18     8     9    1
    19     9    10    1
    20     9    37    1
    21     9    38    1
    22    10    11    1
    23    10    12    1
    24    10    13    1
    25    12    39    1
    26    13    14    1
    27    13    40    1
    28    13    41    1
    29    14    15    1
    30    14    16    1
    31    16    17    2
    32    16    18   am
    33    18    19    1
    34    18    42    1
    35    19    27    1
    36    19    20    2
    37    20    21    1
    38    21    26    1
    39    21    22    1
    40    22    23    1
    41    22    43    1
    42    22    44    1
    43    23    24    1
    44    23    45    1
    45    23    46    1
    46    24    25    1
    47    24    47    1
    48    24    48    1
    49    25    26    1
    50    25    49    1
    51    25    50    1
    52    26    27    2
    53    27    51    1
@<TRIPOS>SUBSTRUCTURE
     1 <0>         1 TEMP              0 ****  ****    0 ROOT


##########                                Name:    ZINC000474368324
##########                DOCK_Rotatable_Bonds:                   9
##########                         Heavy_Atoms:                  27
##########                    Molecular_Weight:             417.332
##########                DOCK_Rotatable_Bonds:                   9
##########                       Formal_Charge:        -1.63913e-07
##########                     HBond_Acceptors:                   8
##########                        HBond_Donors:                   1
##########                         Heavy_Atoms:                  27
##########                          Grid_Score:          -30.712423
##########                     Grid_vdw_energy:          -30.218872
##########                      Grid_es_energy:           -0.493551
##########           Internal_energy_repulsive:           24.897732

@<TRIPOS>MOLECULE
ZINC000474368324
 53 54 1 0 0
SMALL
USER_CHARGES


@<TRIPOS>ATOM
      1 C1        -10.1175    4.0379   49.1347 C.3     1  ZINC000474368324   -0.1500
      2 C2        -10.1750    4.7890   50.4664 C.3     1  ZINC000474368324    0.0600
      3 O3         -9.5151    4.0035   51.4940 O.3     1  ZINC000474368324   -0.3300
      4 C4        -10.2463    3.0544   52.0992 C.2     1  ZINC000474368324    0.4700
      5 O5        -11.4252    2.9525   51.8548 O.2     1  ZINC000474368324   -0.5100
      6 C6         -9.5969    2.1159   53.0833 C.3     1  ZINC000474368324   -0.0400
      7 C7         -8.1900    1.7615   52.5975 C.3     1  ZINC000474368324    0.0600
      8 O8         -8.2723    1.1359   51.3154 O.3     1  ZINC000474368324   -0.3700
      9 C9         -7.0034    0.8936   50.7044 C.3     1  ZINC000474368324    0.0300
     10 C10        -9.5074    2.7947   54.4521 C.3     1  ZINC000474368324   -0.1200
     11 C11        -8.8157    1.8512   55.4411 C.3     1  ZINC000474368324    0.1100
     12 N12        -9.5309    0.5678   55.4496 N.am    1  ZINC000474368324   -0.6300
     13 C13        -9.9761    0.0373   56.6057 C.2     1  ZINC000474368324    0.7100
     14 O14        -9.7873    0.6215   57.6553 O.2     1  ZINC000474368324   -0.5800
     15 N15       -10.6307   -1.1408   56.5987 N.am    1  ZINC000474368324   -0.7400
     16 C16       -11.1147   -1.7174   57.8554 C.3     1  ZINC000474368324    0.2000
     17 H17       -11.4575   -0.9189   58.5134 H       1  ZINC000474368324    0.1100
     18 C18        -9.9793   -2.4858   58.5346 C.3     1  ZINC000474368324   -0.1600
     19 C19       -12.2570   -2.6579   57.5695 C.ar    1  ZINC000474368324   -0.0700
     20 C20       -12.3383   -3.2945   56.3456 C.ar    1  ZINC000474368324   -0.1000
     21 C21       -13.3857   -4.1579   56.0826 C.ar    1  ZINC000474368324   -0.0900
     22 C22       -14.3527   -4.3852   57.0435 C.ar    1  ZINC000474368324   -0.1000
     23 C23       -14.2730   -3.7489   58.2693 C.ar    1  ZINC000474368324   -0.0300
     24 Cl24      -15.4873   -4.0342   59.4766 Cl      1  ZINC000474368324   -0.0400
     25 C25       -13.2212   -2.8884   58.5345 C.ar    1  ZINC000474368324   -0.0300
     26 Cl26      -13.1194   -2.0895   60.0724 Cl      1  ZINC000474368324   -0.0400
     27 C27        -9.7519   -0.1262   54.1735 C.3     1  ZINC000474368324    0.1300
     28 C28       -10.4332    0.8395   53.1987 C.3     1  ZINC000474368324   -0.1200
     29 H29       -10.6129    4.6276   48.3634 H       1  ZINC000474368324    0.0800
     30 H30        -9.0770    3.8740   48.8546 H       1  ZINC000474368324    0.0700
     31 H31       -10.6219    3.0771   49.2375 H       1  ZINC000474368324    0.0700
     32 H32        -9.6706    5.7499   50.3636 H       1  ZINC000474368324    0.0700
     33 H33       -11.2155    4.9530   50.7465 H       1  ZINC000474368324    0.0700
     34 H34        -7.5925    2.6698   52.5209 H       1  ZINC000474368324    0.0700
     35 H35        -7.7225    1.0777   53.3061 H       1  ZINC000474368324    0.0600
     36 H36        -6.4794    1.8395   50.5677 H       1  ZINC000474368324    0.0400
     37 H37        -6.4112    0.2393   51.3441 H       1  ZINC000474368324    0.0400
     38 H38        -7.1518    0.4171   49.7354 H       1  ZINC000474368324    0.0900
     39 H39        -8.9313    3.7158   54.3645 H       1  ZINC000474368324    0.1000
     40 H40       -10.5107    3.0251   54.8102 H       1  ZINC000474368324    0.0800
     41 H41        -7.7825    1.6916   55.1324 H       1  ZINC000474368324    0.0800
     42 H42        -8.8376    2.2882   56.4394 H       1  ZINC000474368324    0.0800
     43 H43       -10.7814   -1.6068   55.7614 H       1  ZINC000474368324    0.3900
     44 H44        -9.6365   -3.2844   57.8766 H       1  ZINC000474368324    0.0600
     45 H45        -9.1530   -1.8056   58.7414 H       1  ZINC000474368324    0.0700
     46 H46       -10.3394   -2.9149   59.4697 H       1  ZINC000474368324    0.0700
     47 H47       -11.5832   -3.1172   55.5939 H       1  ZINC000474368324    0.1300
     48 H48       -13.4484   -4.6546   55.1256 H       1  ZINC000474368324    0.1400
     49 H49       -15.1708   -5.0595   56.8373 H       1  ZINC000474368324    0.1500
     50 H50        -8.7951   -0.4469   53.7614 H       1  ZINC000474368324    0.0700
     51 H51       -10.3917   -0.9937   54.3353 H       1  ZINC000474368324    0.1100
     52 H52       -11.4278    1.0883   53.5686 H       1  ZINC000474368324    0.0900
     53 H53       -10.5161    0.3691   52.2189 H       1  ZINC000474368324    0.0900
@<TRIPOS>BOND
     1     1     2    1
     2     1    29    1
     3     1    30    1
     4     1    31    1
     5     2     3    1
     6     2    32    1
     7     2    33    1
     8     3     4    1
     9     4     5    2
    10     4     6    1
    11     6    28    1
    12     6     7    1
    13     6    10    1
    14     7     8    1
    15     7    34    1
    16     7    35    1
    17     8     9    1
    18     9    36    1
    19     9    37    1
    20     9    38    1
    21    10    11    1
    22    10    39    1
    23    10    40    1
    24    11    12    1
    25    11    41    1
    26    11    42    1
    27    12    13   am
    28    12    27    1
    29    13    14    2
    30    13    15   am
    31    15    16    1
    32    15    43    1
    33    16    17    1
    34    16    18    1
    35    16    19    1
    36    18    44    1
    37    18    45    1
    38    18    46    1
    39    19    25   ar
    40    19    20   ar
    41    20    21   ar
    42    20    47    1
    43    21    22   ar
    44    21    48    1
    45    22    23   ar
    46    22    49    1
    47    23    24    1
    48    23    25   ar
    49    25    26    1
    50    27    28    1
    51    27    50    1
    52    27    51    1
    53    28    52    1
    54    28    53    1
@<TRIPOS>SUBSTRUCTURE
     1 ZINC000474368324        1 TEMP              0 ****  ****    0 ROOT


##########                                Name:    ZINC001401207732
##########                DOCK_Rotatable_Bonds:                   8
##########                         Heavy_Atoms:                  23
##########                    Molecular_Weight:             337.446
##########                DOCK_Rotatable_Bonds:                   8
##########                       Formal_Charge:          -0.0199995
##########                     HBond_Acceptors:                   8
##########                        HBond_Donors:                   1
##########                         Heavy_Atoms:                  23
##########                          Grid_Score:          -30.639744
##########                     Grid_vdw_energy:          -29.859703
##########                      Grid_es_energy:           -0.780040
##########           Internal_energy_repulsive:          101.459152

@<TRIPOS>MOLECULE
ZINC001401207732
 46 47 1 0 0
SMALL
USER_CHARGES


@<TRIPOS>ATOM
      1 C1        -18.0284   -4.2482   50.3499 C.3     1  ZINC001401207732   -0.0900
      2 C2        -17.1562   -3.3722   49.4877 C.2     1  ZINC001401207732    0.1500
      3 C3        -16.0580   -2.7319   49.9612 C.2     1  ZINC001401207732   -0.3000
      4 C4        -15.5543   -2.7813   51.3380 C.2     1  ZINC001401207732    0.6100
      5 O5        -16.1337   -3.4490   52.1742 O.2     1  ZINC001401207732   -0.5200
      6 N6        -14.4498   -2.0873   51.6768 N.am    1  ZINC001401207732   -0.5900
      7 C7        -13.7523   -1.2835   50.6701 C.3     1  ZINC001401207732    0.0700
      8 C8        -13.9468   -2.1367   53.0518 C.3     1  ZINC001401207732    0.1400
      9 H9        -13.0149   -1.5752   53.1182 H       1  ZINC001401207732    0.1100
     10 C10       -14.9815   -1.5210   53.9958 C.3     1  ZINC001401207732   -0.1600
     11 C11       -13.6948   -3.5922   53.4508 C.3     1  ZINC001401207732    0.0500
     12 N12       -12.6736   -3.6408   54.5056 N.3     1  ZINC001401207732   -0.6800
     13 C13       -13.1365   -4.4372   55.6501 C.3     1  ZINC001401207732    0.1500
     14 C14       -12.1284   -4.3453   56.7665 C.2     1  ZINC001401207732    0.1800
     15 N15       -11.8508   -3.2822   57.4823 N.2     1  ZINC001401207732   -0.4800
     16 C16       -10.8989   -3.6689   58.3503 C.2     1  ZINC001401207732    0.1800
     17 C17       -10.2406   -2.8052   59.3951 C.3     1  ZINC001401207732   -0.0100
     18 C18       -11.3121   -2.1898   60.2972 C.3     1  ZINC001401207732   -0.1500
     19 C19        -9.2923   -3.6591   60.2392 C.3     1  ZINC001401207732   -0.1500
     20 N20       -10.6509   -4.9240   58.1223 N.2     1  ZINC001401207732   -0.3800
     21 O21       -11.3508   -5.3330   57.2200 O.3     1  ZINC001401207732    0.0900
     22 S22       -15.3493   -1.8239   48.6276 S.3     1  ZINC001401207732    0.1800
     23 C23       -16.5729   -2.3926   47.5779 C.2     1  ZINC001401207732    0.0100
     24 N24       -17.3926   -3.1641   48.2168 N.2     1  ZINC001401207732   -0.4800
     25 H25       -18.8175   -3.6452   50.7993 H       1  ZINC001401207732    0.0800
     26 H26       -18.4741   -5.0320   49.7375 H       1  ZINC001401207732    0.0800
     27 H27       -17.4244   -4.7007   51.1363 H       1  ZINC001401207732    0.1000
     28 H28       -13.0701   -1.9197   50.1060 H       1  ZINC001401207732    0.0600
     29 H29       -14.4804   -0.8397   49.9911 H       1  ZINC001401207732    0.0800
     30 H30       -13.1872   -0.4931   51.1640 H       1  ZINC001401207732    0.0900
     31 H31       -14.6072   -1.5577   55.0189 H       1  ZINC001401207732    0.0700
     32 H32       -15.1610   -0.4841   53.7117 H       1  ZINC001401207732    0.0700
     33 H33       -15.9134   -2.0824   53.9296 H       1  ZINC001401207732    0.0600
     34 H34       -13.3471   -4.1518   52.5824 H       1  ZINC001401207732    0.0800
     35 H35       -14.6204   -4.0331   53.8205 H       1  ZINC001401207732    0.0500
     36 H36       -12.4086   -2.7113   54.7955 H       1  ZINC001401207732    0.3600
     37 H37       -13.2487   -5.4781   55.3466 H       1  ZINC001401207732    0.1100
     38 H38       -14.0967   -4.0536   55.9950 H       1  ZINC001401207732    0.0800
     39 H39        -9.6765   -2.0104   58.9068 H       1  ZINC001401207732    0.1000
     40 H40       -10.8360   -1.5650   61.0529 H       1  ZINC001401207732    0.0700
     41 H41       -11.9877   -1.5814   59.6960 H       1  ZINC001401207732    0.0600
     42 H42       -11.8762   -2.9844   60.7856 H       1  ZINC001401207732    0.0600
     43 H43        -8.5289   -4.0976   59.5965 H       1  ZINC001401207732    0.0600
     44 H44        -8.8161   -3.0344   60.9948 H       1  ZINC001401207732    0.0700
     45 H45        -9.8563   -4.4538   60.7275 H       1  ZINC001401207732    0.0600
     46 H46       -16.6534   -2.1400   46.5309 H       1  ZINC001401207732    0.2000
@<TRIPOS>BOND
     1     1     2    1
     2     1    25    1
     3     1    26    1
     4     1    27    1
     5     2    24    1
     6     2     3    2
     7     3     4    1
     8     3    22    1
     9     4     5    2
    10     4     6   am
    11     6     7    1
    12     6     8    1
    13     7    28    1
    14     7    29    1
    15     7    30    1
    16     8     9    1
    17     8    10    1
    18     8    11    1
    19    10    31    1
    20    10    32    1
    21    10    33    1
    22    11    12    1
    23    11    34    1
    24    11    35    1
    25    12    13    1
    26    12    36    1
    27    13    14    1
    28    13    37    1
    29    13    38    1
    30    14    21    1
    31    14    15    2
    32    15    16    1
    33    16    17    1
    34    16    20    2
    35    17    18    1
    36    17    19    1
    37    17    39    1
    38    18    40    1
    39    18    41    1
    40    18    42    1
    41    19    43    1
    42    19    44    1
    43    19    45    1
    44    20    21    1
    45    22    23    1
    46    23    24    2
    47    23    46    1
@<TRIPOS>SUBSTRUCTURE
     1 ZINC001401207732        1 TEMP              0 ****  ****    0 ROOT


##########                                Name:    ZINC000944933040
##########                DOCK_Rotatable_Bonds:                   4
##########                         Heavy_Atoms:                  26
##########                    Molecular_Weight:             354.449
##########                DOCK_Rotatable_Bonds:                   4
##########                       Formal_Charge:           0.0100002
##########                     HBond_Acceptors:                   5
##########                        HBond_Donors:                   0
##########                         Heavy_Atoms:                  26
##########                          Grid_Score:          -30.636494
##########                     Grid_vdw_energy:          -31.628517
##########                      Grid_es_energy:            0.992023
##########           Internal_energy_repulsive:           14.382354

@<TRIPOS>MOLECULE
ZINC000944933040
 52 57 1 0 0
SMALL
USER_CHARGES


@<TRIPOS>ATOM
      1 O1         -8.9411   -1.4055   62.9115 O.2     1  ZINC000944933040   -0.5200
      2 C2         -9.8980   -0.8834   62.3725 C.2     1  ZINC000944933040    0.6400
      3 C3        -10.3480    0.4057   62.8044 C.1     1  ZINC000944933040   -0.2200
      4 C4        -10.7167    1.4625   63.1586 C.1     1  ZINC000944933040   -0.0400
      5 C5        -11.1792    2.7875   63.6026 C.3     1  ZINC000944933040   -0.0700
      6 C6        -11.9485    2.8613   64.9231 C.3     1  ZINC000944933040   -0.1600
      7 C7        -10.5145    3.3888   64.8426 C.3     1  ZINC000944933040   -0.1600
      8 N8        -10.5318   -1.5155   61.3649 N.am    1  ZINC000944933040   -0.6000
      9 C9        -10.0831   -2.8407   60.9176 C.3     1  ZINC000944933040    0.1100
     10 C10        -9.7904   -2.7806   59.4136 C.3     1  ZINC000944933040   -0.1200
     11 C11       -11.0045   -2.2024   58.6908 C.3     1  ZINC000944933040   -0.0900
     12 C12       -10.9135   -2.2992   57.1616 C.3     1  ZINC000944933040    0.1200
     13 N13       -12.3342   -2.6995   57.2062 N.am    1  ZINC000944933040   -0.6400
     14 C14       -13.3573   -2.6481   56.3304 C.2     1  ZINC000944933040    0.5500
     15 O15       -14.4513   -3.0620   56.6509 O.2     1  ZINC000944933040   -0.5300
     16 C16       -13.1420   -2.0764   54.9527 C.3     1  ZINC000944933040   -0.1300
     17 H17       -12.9519   -1.0044   55.0065 H       1  ZINC000944933040    0.1100
     18 C18       -14.3582   -2.3732   54.0388 C.3     1  ZINC000944933040   -0.1300
     19 C19       -13.7340   -3.2410   52.9051 C.3     1  ZINC000944933040    0.0900
     20 H20       -14.4362   -3.8691   52.3569 H       1  ZINC000944933040    0.1300
     21 O21       -12.6824   -3.9529   53.6363 O.3     1  ZINC000944933040   -0.3600
     22 C22       -11.9732   -2.8086   54.2277 C.3     1  ZINC000944933040    0.1200
     23 H23       -11.1078   -3.0558   54.8425 H       1  ZINC000944933040    0.1400
     24 C24       -11.6708   -1.9515   52.9620 C.3     1  ZINC000944933040   -0.2000
     25 H25       -11.2608   -0.9515   53.1031 H       1  ZINC000944933040    0.1200
     26 C26       -11.4393   -2.7005   51.6481 C.3     1  ZINC000944933040   -0.1300
     27 C27       -12.9057   -2.2485   52.0352 C.3     1  ZINC000944933040   -0.2000
     28 H28       -13.4175   -1.4854   51.4487 H       1  ZINC000944933040    0.1300
     29 C29       -12.1845   -3.1797   58.5945 C.3     1  ZINC000944933040    0.1100
     30 C30       -11.3996   -0.8160   59.1934 C.3     1  ZINC000944933040   -0.1100
     31 C31       -11.6850   -0.8916   60.7026 C.3     1  ZINC000944933040    0.1100
     32 H32       -11.4755    3.4725   62.8082 H       1  ZINC000944933040    0.1400
     33 H33       -12.7512    3.5949   64.9976 H       1  ZINC000944933040    0.1100
     34 H34       -12.1120    1.9287   65.4630 H       1  ZINC000944933040    0.1000
     35 H35        -9.7347    2.8032   65.3296 H       1  ZINC000944933040    0.1000
     36 H36       -10.3739    4.4695   64.8641 H       1  ZINC000944933040    0.1100
     37 H37        -9.1772   -3.1204   61.4553 H       1  ZINC000944933040    0.0900
     38 H38       -10.8654   -3.5751   61.1086 H       1  ZINC000944933040    0.0800
     39 H39        -8.9235   -2.1440   59.2362 H       1  ZINC000944933040    0.0800
     40 H40        -9.5887   -3.7848   59.0412 H       1  ZINC000944933040    0.0900
     41 H41       -10.7418   -1.3417   56.6700 H       1  ZINC000944933040    0.0800
     42 H42       -10.2459   -3.0857   56.8099 H       1  ZINC000944933040    0.0900
     43 H43       -15.1199   -2.9346   54.5798 H       1  ZINC000944933040    0.0800
     44 H44       -14.7720   -1.4494   53.6346 H       1  ZINC000944933040    0.0900
     45 H45       -10.9572   -2.1542   50.8373 H       1  ZINC000944933040    0.1000
     46 H46       -11.1915   -3.7601   51.7113 H       1  ZINC000944933040    0.1000
     47 H47       -11.8945   -4.2278   58.6685 H       1  ZINC000944933040    0.0900
     48 H48       -13.0227   -2.9220   59.2417 H       1  ZINC000944933040    0.0800
     49 H49       -10.5849   -0.1157   59.0089 H       1  ZINC000944933040    0.0800
     50 H50       -12.2953   -0.4805   58.6708 H       1  ZINC000944933040    0.0800
     51 H51       -12.5800   -1.4892   60.8758 H       1  ZINC000944933040    0.0700
     52 H52       -11.8321    0.1136   61.0976 H       1  ZINC000944933040    0.1000
@<TRIPOS>BOND
     1     1     2    2
     2     2     3    1
     3     2     8   am
     4     3     4    3
     5     4     5    1
     6     5     7    1
     7     5     6    1
     8     5    32    1
     9     6     7    1
    10     6    33    1
    11     6    34    1
    12     7    35    1
    13     7    36    1
    14     8    31    1
    15     8     9    1
    16     9    10    1
    17     9    37    1
    18     9    38    1
    19    10    11    1
    20    10    39    1
    21    10    40    1
    22    11    29    1
    23    11    12    1
    24    11    30    1
    25    12    13    1
    26    12    41    1
    27    12    42    1
    28    13    14   am
    29    13    29    1
    30    14    15    2
    31    14    16    1
    32    16    17    1
    33    16    22    1
    34    16    18    1
    35    18    19    1
    36    18    43    1
    37    18    44    1
    38    19    20    1
    39    19    27    1
    40    19    21    1
    41    21    22    1
    42    22    23    1
    43    22    24    1
    44    24    25    1
    45    24    27    1
    46    24    26    1
    47    26    27    1
    48    26    45    1
    49    26    46    1
    50    27    28    1
    51    29    47    1
    52    29    48    1
    53    30    31    1
    54    30    49    1
    55    30    50    1
    56    31    51    1
    57    31    52    1
@<TRIPOS>SUBSTRUCTURE
     1 ZINC000944933040        1 TEMP              0 ****  ****    0 ROOT


##########                                Name:    ZINC000535362552
##########                DOCK_Rotatable_Bonds:                   5
##########                         Heavy_Atoms:                  26
##########                    Molecular_Weight:             416.228
##########                DOCK_Rotatable_Bonds:                   5
##########                       Formal_Charge:         -0.00999981
##########                     HBond_Acceptors:                   6
##########                        HBond_Donors:                   1
##########                         Heavy_Atoms:                  26
##########                          Grid_Score:          -30.631611
##########                     Grid_vdw_energy:          -30.519989
##########                      Grid_es_energy:           -0.111621
##########           Internal_energy_repulsive:           22.873344

@<TRIPOS>MOLECULE
ZINC000535362552
 40 43 1 0 0
SMALL
USER_CHARGES


@<TRIPOS>ATOM
      1 C1        -11.1935    3.0311   66.7178 C.3     1  ZINC000535362552    0.0300
      2 O2         -9.7790    3.0767   67.0423 O.3     1  ZINC000535362552   -0.3400
      3 C3         -8.9594    2.2852   66.3208 C.2     1  ZINC000535362552    0.5500
      4 O4         -7.7649    2.2799   66.5474 O.2     1  ZINC000535362552   -0.4800
      5 C5         -9.5095    1.4302   65.2618 C.2     1  ZINC000535362552   -0.0100
      6 C6         -8.7840    0.5847   64.4835 C.2     1  ZINC000535362552   -0.0900
      7 C7         -9.7395   -0.0535   63.5790 C.ar    1  ZINC000535362552   -0.1300
      8 C8         -9.6281   -1.0009   62.5587 C.ar    1  ZINC000535362552   -0.0600
      9 C9        -10.7607   -1.4037   61.8763 C.ar    1  ZINC000535362552    0.1200
     10 N10       -10.6583   -2.3539   60.8517 N.am    1  ZINC000535362552   -0.6700
     11 C11       -10.3023   -1.9701   59.6098 C.2     1  ZINC000535362552    0.5200
     12 O12       -10.0704   -0.8021   59.3790 O.2     1  ZINC000535362552   -0.5000
     13 C13       -10.1922   -2.9921   58.5079 C.3     1  ZINC000535362552   -0.1000
     14 H14        -9.4321   -2.7003   57.7830 H       1  ZINC000535362552    0.1300
     15 C15        -9.8959   -4.3969   59.0842 C.3     1  ZINC000535362552    0.0600
     16 O16       -10.6488   -5.2620   58.2173 O.3     1  ZINC000535362552   -0.2900
     17 C17       -11.7164   -4.5793   57.7193 C.ar    1  ZINC000535362552    0.1300
     18 C18       -12.8929   -5.0558   57.1471 C.ar    1  ZINC000535362552   -0.1300
     19 C19       -13.8525   -4.1739   56.6943 C.ar    1  ZINC000535362552   -0.0500
     20 C20       -13.6547   -2.8093   56.8040 C.ar    1  ZINC000535362552   -0.1200
     21 Br21      -14.9716   -1.6059   56.1764 Br      1  ZINC000535362552   -0.0400
     22 C22       -12.4890   -2.3277   57.3755 C.ar    1  ZINC000535362552   -0.0100
     23 C23       -11.5324   -3.2062   57.8314 C.ar    1  ZINC000535362552   -0.1600
     24 C24       -12.0044   -0.8670   62.2052 C.ar    1  ZINC000535362552   -0.0900
     25 C25       -12.1230    0.0679   63.2093 C.ar    1  ZINC000535362552   -0.0900
     26 C26       -10.9970    0.4864   63.9086 C.ar    1  ZINC000535362552    0.0700
     27 O27       -10.8126    1.3607   64.9182 O.3     1  ZINC000535362552   -0.1700
     28 H28       -11.5663    2.0168   66.8598 H       1  ZINC000535362552    0.0700
     29 H29       -11.7382    3.7131   67.3707 H       1  ZINC000535362552    0.1100
     30 H30       -11.3378    3.3293   65.6794 H       1  ZINC000535362552    0.0700
     31 H31        -7.7176    0.4184   64.5242 H       1  ZINC000535362552    0.1800
     32 H32        -8.6638   -1.4156   62.3047 H       1  ZINC000535362552    0.1400
     33 H33       -10.8437   -3.2880   61.0363 H       1  ZINC000535362552    0.4100
     34 H34        -8.8311   -4.6222   59.0245 H       1  ZINC000535362552    0.1200
     35 H35       -10.2512   -4.4756   60.1117 H       1  ZINC000535362552    0.0900
     36 H36       -13.0551   -6.1198   57.0576 H       1  ZINC000535362552    0.1400
     37 H37       -14.7626   -4.5509   56.2516 H       1  ZINC000535362552    0.1400
     38 H38       -12.3301   -1.2631   57.4633 H       1  ZINC000535362552    0.1400
     39 H39       -12.8840   -1.1875   61.6666 H       1  ZINC000535362552    0.1500
     40 H40       -13.0923    0.4764   63.4540 H       1  ZINC000535362552    0.1500
@<TRIPOS>BOND
     1     1     2    1
     2     1    28    1
     3     1    29    1
     4     1    30    1
     5     2     3    1
     6     3     4    2
     7     3     5    1
     8     5    27    1
     9     5     6    2
    10     6     7    1
    11     6    31    1
    12     7    26   ar
    13     7     8   ar
    14     8     9   ar
    15     8    32    1
    16     9    10    1
    17     9    24   ar
    18    10    11   am
    19    10    33    1
    20    11    12    2
    21    11    13    1
    22    13    14    1
    23    13    23    1
    24    13    15    1
    25    15    16    1
    26    15    34    1
    27    15    35    1
    28    16    17    1
    29    17    23   ar
    30    17    18   ar
    31    18    19   ar
    32    18    36    1
    33    19    20   ar
    34    19    37    1
    35    20    21    1
    36    20    22   ar
    37    22    23   ar
    38    22    38    1
    39    24    25   ar
    40    24    39    1
    41    25    26   ar
    42    25    40    1
    43    26    27    1
@<TRIPOS>SUBSTRUCTURE
     1 ZINC000535362552        1 TEMP              0 ****  ****    0 ROOT


##########                                Name:    ZINC000015179664
##########                DOCK_Rotatable_Bonds:                   8
##########                         Heavy_Atoms:                  25
##########                    Molecular_Weight:             361.422
##########                DOCK_Rotatable_Bonds:                   8
##########                       Formal_Charge:        -2.23517e-07
##########                     HBond_Acceptors:                   8
##########                        HBond_Donors:                   1
##########                         Heavy_Atoms:                  25
##########                          Grid_Score:          -30.615313
##########                     Grid_vdw_energy:          -29.476940
##########                      Grid_es_energy:           -1.138372
##########           Internal_energy_repulsive:           25.693300

@<TRIPOS>MOLECULE
ZINC000015179664
 44 45 1 0 0
SMALL
USER_CHARGES


@<TRIPOS>ATOM
      1 C1         -9.9636    0.2661   57.0649 C.3     1  ZINC000015179664   -0.1600
      2 C2        -10.4195   -0.0444   58.4921 C.3     1  ZINC000015179664    0.1800
      3 H3         -9.8347    0.5465   59.1970 H       1  ZINC000015179664    0.1200
      4 C4        -10.2172   -1.5104   58.7764 C.ar    1  ZINC000015179664   -0.1000
      5 C5         -9.4946   -1.9059   59.8862 C.ar    1  ZINC000015179664   -0.0700
      6 C6         -9.3091   -3.2509   60.1470 C.ar    1  ZINC000015179664   -0.1200
      7 C7         -9.8465   -4.2000   59.2981 C.ar    1  ZINC000015179664   -0.0500
      8 C8        -10.5702   -3.8045   58.1885 C.ar    1  ZINC000015179664   -0.0400
      9 N9        -11.1454   -4.8209   57.2790 N.pl3   1  ZINC000015179664    0.0300
     10 O10       -10.9813   -6.0057   57.5083 O.2     1  ZINC000015179664   -0.1600
     11 O11       -11.7829   -4.4722   56.3015 O.2     1  ZINC000015179664   -0.1500
     12 C12       -10.7593   -2.4599   57.9301 C.ar    1  ZINC000015179664   -0.0400
     13 N13       -11.8388    0.2893   58.6348 N.am    1  ZINC000015179664   -0.6100
     14 C14       -12.7586    0.0719   57.5154 C.3     1  ZINC000015179664    0.0600
     15 C15       -12.2984    0.7963   59.7959 C.2     1  ZINC000015179664    0.5200
     16 O16       -13.4732    1.0738   59.9136 O.2     1  ZINC000015179664   -0.5200
     17 C17       -11.3527    1.0182   60.9480 C.3     1  ZINC000015179664   -0.1500
     18 C18       -12.1507    1.1304   62.2486 C.3     1  ZINC000015179664    0.1300
     19 N19       -11.3048    1.7157   63.2917 N.am    1  ZINC000015179664   -0.7300
     20 C20       -10.5059    0.9243   64.0345 C.2     1  ZINC000015179664    0.5800
     21 O21       -10.4883   -0.2762   63.8399 O.2     1  ZINC000015179664   -0.5300
     22 C22        -9.6547    1.5128   65.0814 C.2     1  ZINC000015179664   -0.1500
     23 C23        -8.6881    0.8187   65.7399 C.2     1  ZINC000015179664   -0.2200
     24 S24        -7.9013    1.8105   66.8812 S.3     1  ZINC000015179664    0.1900
     25 C25        -8.8923    3.1993   66.4694 C.2     1  ZINC000015179664   -0.2300
     26 C26        -9.7563    2.8881   65.5105 C.2     1  ZINC000015179664   -0.0900
     27 H27        -8.9076    0.0178   56.9587 H       1  ZINC000015179664    0.0800
     28 H28       -10.5485   -0.3249   56.3600 H       1  ZINC000015179664    0.0600
     29 H29       -10.1100    1.3265   56.8593 H       1  ZINC000015179664    0.0700
     30 H30        -9.0746   -1.1643   60.5495 H       1  ZINC000015179664    0.1500
     31 H31        -8.7437   -3.5600   61.0137 H       1  ZINC000015179664    0.1500
     32 H32        -9.7010   -5.2507   59.5014 H       1  ZINC000015179664    0.1600
     33 H33       -11.3246   -2.1507   57.0634 H       1  ZINC000015179664    0.1600
     34 H34       -13.1438   -0.9470   57.5543 H       1  ZINC000015179664    0.0600
     35 H35       -13.5875    0.7765   57.5842 H       1  ZINC000015179664    0.0800
     36 H36       -12.2289    0.2246   56.5750 H       1  ZINC000015179664    0.0800
     37 H37       -10.6612    0.1785   61.0173 H       1  ZINC000015179664    0.1000
     38 H38       -10.7916    1.9383   60.7854 H       1  ZINC000015179664    0.1000
     39 H39       -13.0210    1.7665   62.0871 H       1  ZINC000015179664    0.0800
     40 H40       -12.4784    0.1387   62.5606 H       1  ZINC000015179664    0.0800
     41 H41       -11.3197    2.6731   63.4476 H       1  ZINC000015179664    0.4000
     42 H42        -8.4512   -0.2201   65.5635 H       1  ZINC000015179664    0.1700
     43 H43        -8.8083    4.1728   66.9293 H       1  ZINC000015179664    0.1700
     44 H44       -10.4671    3.5893   65.0989 H       1  ZINC000015179664    0.1600
@<TRIPOS>BOND
     1     1     2    1
     2     1    27    1
     3     1    28    1
     4     1    29    1
     5     2     3    1
     6     2     4    1
     7     2    13    1
     8     4    12   ar
     9     4     5   ar
    10     5     6   ar
    11     5    30    1
    12     6     7   ar
    13     6    31    1
    14     7     8   ar
    15     7    32    1
    16     8     9    1
    17     8    12   ar
    18     9    10    2
    19     9    11    2
    20    12    33    1
    21    13    14    1
    22    13    15   am
    23    14    34    1
    24    14    35    1
    25    14    36    1
    26    15    16    2
    27    15    17    1
    28    17    18    1
    29    17    37    1
    30    17    38    1
    31    18    19    1
    32    18    39    1
    33    18    40    1
    34    19    20   am
    35    19    41    1
    36    20    21    2
    37    20    22    1
    38    22    26    1
    39    22    23    2
    40    23    24    1
    41    23    42    1
    42    24    25    1
    43    25    26    2
    44    25    43    1
    45    26    44    1
@<TRIPOS>SUBSTRUCTURE
     1 ZINC000015179664        1 TEMP              0 ****  ****    0 ROOT


##########                                Name:    ZINC001091652821
##########                DOCK_Rotatable_Bonds:                   4
##########                         Heavy_Atoms:                  24
##########                    Molecular_Weight:             345.465
##########                DOCK_Rotatable_Bonds:                   4
##########                       Formal_Charge:          -0.0199997
##########                     HBond_Acceptors:                   6
##########                        HBond_Donors:                   0
##########                         Heavy_Atoms:                  24
##########                          Grid_Score:          -30.612503
##########                     Grid_vdw_energy:          -29.036175
##########                      Grid_es_energy:           -1.576327
##########           Internal_energy_repulsive:            3.907766

@<TRIPOS>MOLECULE
ZINC001091652821
 47 50 1 0 0
SMALL
USER_CHARGES


@<TRIPOS>ATOM
      1 C1        -12.5199   -2.5184   52.2288 C.3     1  ZINC001091652821   -0.1000
      2 C2        -12.6975   -3.3279   53.4874 C.2     1  ZINC001091652821   -0.1200
      3 C3        -13.7111   -4.1857   53.6524 C.2     1  ZINC001091652821   -0.2400
      4 S4        -13.6285   -4.9415   55.1798 S.3     1  ZINC001091652821    0.2100
      5 C5        -12.1677   -4.0546   55.5933 C.2     1  ZINC001091652821   -0.2700
      6 C6        -11.4305   -4.1711   56.8549 C.2     1  ZINC001091652821    0.6100
      7 O7        -11.0133   -5.2552   57.2180 O.2     1  ZINC001091652821   -0.5200
      8 N8        -11.2147   -3.0776   57.6127 N.am    1  ZINC001091652821   -0.6200
      9 C9        -11.6557   -1.7038   57.3208 C.3     1  ZINC001091652821    0.0900
     10 C10       -11.9091   -1.0311   58.6800 C.3     1  ZINC001091652821   -0.0900
     11 H11       -11.5784    0.0075   58.6903 H       1  ZINC001091652821    0.1100
     12 C12       -13.4036   -1.1668   59.0391 C.3     1  ZINC001091652821    0.0400
     13 N13       -13.4130   -1.5464   60.4751 N.3     1  ZINC001091652821   -0.5000
     14 C14       -14.6852   -2.1818   60.8434 C.3     1  ZINC001091652821    0.1200
     15 C15       -15.3203   -1.4155   61.9749 C.2     1  ZINC001091652821    0.0000
     16 C16       -16.1943   -0.4025   61.8542 C.2     1  ZINC001091652821   -0.0800
     17 O17       -16.5120   -0.0022   63.1009 O.3     1  ZINC001091652821   -0.2000
     18 C18       -15.8324   -0.7707   63.9624 C.2     1  ZINC001091652821    0.1900
     19 C19       -15.8897   -0.6672   65.4647 C.3     1  ZINC001091652821   -0.0600
     20 N20       -15.1186   -1.6261   63.2877 N.2     1  ZINC001091652821   -0.4700
     21 C21       -12.2832   -2.5016   60.6070 C.3     1  ZINC001091652821    0.0400
     22 C22       -11.1450   -1.8983   59.7136 C.3     1  ZINC001091652821   -0.0700
     23 C23       -10.1282   -1.1050   60.5368 C.3     1  ZINC001091652821   -0.1300
     24 C24       -10.4976   -3.0250   58.8971 C.3     1  ZINC001091652821    0.1200
     25 C25       -11.8266   -3.2433   54.5478 C.2     1  ZINC001091652821   -0.0500
     26 H26       -11.9099   -3.0783   51.5198 H       1  ZINC001091652821    0.0700
     27 H27       -13.4954   -2.3147   51.7872 H       1  ZINC001091652821    0.0700
     28 H28       -12.0259   -1.5770   52.4689 H       1  ZINC001091652821    0.0700
     29 H29       -14.4794   -4.3741   52.9170 H       1  ZINC001091652821    0.1700
     30 H30       -10.8768   -1.1684   56.7778 H       1  ZINC001091652821    0.0800
     31 H31       -12.5750   -1.7225   56.7355 H       1  ZINC001091652821    0.0800
     32 H32       -13.9170   -0.2163   58.8943 H       1  ZINC001091652821    0.0800
     33 H33       -13.8697   -1.9468   58.4371 H       1  ZINC001091652821    0.0500
     34 H34       -15.3544   -2.1805   59.9830 H       1  ZINC001091652821    0.0500
     35 H35       -14.5006   -3.2088   61.1586 H       1  ZINC001091652821    0.1000
     36 H36       -16.5713    0.0129   60.9312 H       1  ZINC001091652821    0.2100
     37 H37       -16.5727    0.1338   65.7480 H       1  ZINC001091652821    0.0900
     38 H38       -16.2438   -1.6104   65.8807 H       1  ZINC001091652821    0.1000
     39 H39       -14.8944   -0.4499   65.8524 H       1  ZINC001091652821    0.1000
     40 H40       -11.9520   -2.5572   61.6439 H       1  ZINC001091652821    0.0900
     41 H41       -12.5758   -3.4881   60.2474 H       1  ZINC001091652821    0.0500
     42 H42        -9.6554   -1.7651   61.2640 H       1  ZINC001091652821    0.0600
     43 H43        -9.3683   -0.6908   59.8743 H       1  ZINC001091652821    0.0600
     44 H44       -10.6365   -0.2942   61.0586 H       1  ZINC001091652821    0.0700
     45 H45       -10.6178   -3.9776   59.4132 H       1  ZINC001091652821    0.0900
     46 H46        -9.4395   -2.8140   58.7420 H       1  ZINC001091652821    0.0800
     47 H47       -10.9633   -2.5946   54.5569 H       1  ZINC001091652821    0.1500
@<TRIPOS>BOND
     1     1     2    1
     2     1    26    1
     3     1    27    1
     4     1    28    1
     5     2    25    1
     6     2     3    2
     7     3     4    1
     8     3    29    1
     9     4     5    1
    10     5     6    1
    11     5    25    2
    12     6     7    2
    13     6     8   am
    14     8    24    1
    15     8     9    1
    16     9    10    1
    17     9    30    1
    18     9    31    1
    19    10    11    1
    20    10    22    1
    21    10    12    1
    22    12    13    1
    23    12    32    1
    24    12    33    1
    25    13    14    1
    26    13    21    1
    27    14    15    1
    28    14    34    1
    29    14    35    1
    30    15    20    1
    31    15    16    2
    32    16    17    1
    33    16    36    1
    34    17    18    1
    35    18    19    1
    36    18    20    2
    37    19    37    1
    38    19    38    1
    39    19    39    1
    40    21    22    1
    41    21    40    1
    42    21    41    1
    43    22    23    1
    44    22    24    1
    45    23    42    1
    46    23    43    1
    47    23    44    1
    48    24    45    1
    49    24    46    1
    50    25    47    1
@<TRIPOS>SUBSTRUCTURE
     1 ZINC001091652821        1 TEMP              0 ****  ****    0 ROOT


##########                                Name:    ZINC000460163972
##########                DOCK_Rotatable_Bonds:                   7
##########                         Heavy_Atoms:                  28
##########                    Molecular_Weight:             408.469
##########                DOCK_Rotatable_Bonds:                   7
##########                       Formal_Charge:          -0.0100001
##########                     HBond_Acceptors:                   8
##########                        HBond_Donors:                   2
##########                         Heavy_Atoms:                  28
##########                          Grid_Score:          -30.611107
##########                     Grid_vdw_energy:          -28.377378
##########                      Grid_es_energy:           -2.233729
##########           Internal_energy_repulsive:           51.297569

@<TRIPOS>MOLECULE
ZINC000460163972
 50 52 1 0 0
SMALL
USER_CHARGES


@<TRIPOS>ATOM
      1 C1         -9.1405   -3.0984   59.9880 C.3     1  ZINC000460163972   -0.1400
      2 C2        -10.2314   -3.2472   58.9591 C.ar    1  ZINC000460163972    0.0100
      3 C3        -10.6727   -4.5070   58.5988 C.ar    1  ZINC000460163972   -0.1300
      4 C4        -11.6725   -4.6469   57.6560 C.ar    1  ZINC000460163972   -0.0600
      5 C5        -12.2347   -3.5206   57.0702 C.ar    1  ZINC000460163972    0.1100
      6 N6        -13.2480   -3.6588   56.1152 N.am    1  ZINC000460163972   -0.6700
      7 C7        -12.9347   -3.9567   54.8386 C.2     1  ZINC000460163972    0.5200
      8 O8        -11.7745   -4.1050   54.5176 O.2     1  ZINC000460163972   -0.5100
      9 C9        -14.0260   -4.1055   53.8099 C.3     1  ZINC000460163972   -0.0700
     10 H10       -13.6727   -4.7362   52.9941 H       1  ZINC000460163972    0.1200
     11 C11       -15.2532   -4.7497   54.4580 C.3     1  ZINC000460163972   -0.1500
     12 C12       -14.3968   -2.7479   53.2710 C.ar    1  ZINC000460163972   -0.0600
     13 C13       -15.3824   -2.0043   53.8923 C.ar    1  ZINC000460163972   -0.0700
     14 C14       -15.7245   -0.7585   53.3997 C.ar    1  ZINC000460163972   -0.1200
     15 C15       -15.0796   -0.2548   52.2839 C.ar    1  ZINC000460163972    0.0700
     16 F16       -15.4129    0.9626   51.8022 F       1  ZINC000460163972   -0.1300
     17 C17       -14.0903   -1.0009   51.6608 C.ar    1  ZINC000460163972    0.0700
     18 F18       -13.4592   -0.5112   50.5712 F       1  ZINC000460163972   -0.1300
     19 C19       -13.7469   -2.2452   52.1591 C.ar    1  ZINC000460163972   -0.1200
     20 C20       -11.7895   -2.2564   57.4346 C.ar    1  ZINC000460163972    0.0000
     21 C21       -12.3973   -1.0312   56.8016 C.3     1  ZINC000460163972   -0.1500
     22 C22       -10.7930   -2.1232   58.3811 C.ar    1  ZINC000460163972   -0.6700
     23 S23       -10.2280   -0.5199   58.8445 S.o2    1  ZINC000460163972    2.7000
     24 O24        -8.9675   -0.3406   58.2135 O.2     1  ZINC000460163972   -0.9500
     25 O25       -11.3251    0.3628   58.6540 O.2     1  ZINC000460163972   -0.9500
     26 N26        -9.9342   -0.5557   60.4739 N.am    1  ZINC000460163972   -1.0900
     27 C27       -11.0187   -0.8709   61.4070 C.3     1  ZINC000460163972    0.0800
     28 C28       -10.9484   -0.2549   62.8058 C.3     1  ZINC000460163972   -0.1800
     29 C29       -11.9708    0.2630   61.7924 C.3     1  ZINC000460163972   -0.1900
     30 H30        -9.5863   -2.9304   60.9684 H       1  ZINC000460163972    0.1000
     31 H31        -8.5385   -4.0068   60.0133 H       1  ZINC000460163972    0.0800
     32 H32        -8.5078   -2.2503   59.7265 H       1  ZINC000460163972    0.0700
     33 H33       -10.2350   -5.3827   59.0549 H       1  ZINC000460163972    0.1400
     34 H34       -12.0163   -5.6314   57.3746 H       1  ZINC000460163972    0.1600
     35 H35       -14.1758   -3.5402   56.3717 H       1  ZINC000460163972    0.4100
     36 H36       -16.0424   -4.8574   53.7139 H       1  ZINC000460163972    0.0800
     37 H37       -14.9849   -5.7317   54.8478 H       1  ZINC000460163972    0.0700
     38 H38       -15.6065   -4.1191   55.2738 H       1  ZINC000460163972    0.0700
     39 H39       -15.8861   -2.3969   54.7632 H       1  ZINC000460163972    0.1400
     40 H40       -16.4952   -0.1787   53.8856 H       1  ZINC000460163972    0.1500
     41 H41       -12.9765   -2.8270   51.6749 H       1  ZINC000460163972    0.1500
     42 H42       -13.1728   -0.6315   57.4550 H       1  ZINC000460163972    0.1000
     43 H43       -11.6239   -0.2777   56.6524 H       1  ZINC000460163972    0.1000
     44 H44       -12.8348   -1.2982   55.8395 H       1  ZINC000460163972    0.0700
     45 H45        -9.0439   -0.3680   60.8104 H       1  ZINC000460163972    0.4200
     46 H46       -11.4388   -1.8727   61.3185 H       1  ZINC000460163972    0.1300
     47 H47       -11.3222   -0.8516   63.6379 H       1  ZINC000460163972    0.1100
     48 H48       -10.0952    0.3847   63.0318 H       1  ZINC000460163972    0.1000
     49 H49       -11.7904    1.2435   61.3515 H       1  ZINC000460163972    0.1000
     50 H50       -13.0174    0.0071   61.9576 H       1  ZINC000460163972    0.1000
@<TRIPOS>BOND
     1     1     2    1
     2     1    30    1
     3     1    31    1
     4     1    32    1
     5     2    22   ar
     6     2     3   ar
     7     3     4   ar
     8     3    33    1
     9     4     5   ar
    10     4    34    1
    11     5     6    1
    12     5    20   ar
    13     6     7   am
    14     6    35    1
    15     7     8    2
    16     7     9    1
    17     9    10    1
    18     9    11    1
    19     9    12    1
    20    11    36    1
    21    11    37    1
    22    11    38    1
    23    12    19   ar
    24    12    13   ar
    25    13    14   ar
    26    13    39    1
    27    14    15   ar
    28    14    40    1
    29    15    16    1
    30    15    17   ar
    31    17    18    1
    32    17    19   ar
    33    19    41    1
    34    20    21    1
    35    20    22   ar
    36    21    42    1
    37    21    43    1
    38    21    44    1
    39    22    23    1
    40    23    24    2
    41    23    25    2
    42    23    26   am
    43    26    27    1
    44    26    45    1
    45    27    29    1
    46    27    28    1
    47    27    46    1
    48    28    29    1
    49    28    47    1
    50    28    48    1
    51    29    49    1
    52    29    50    1
@<TRIPOS>SUBSTRUCTURE
     1 ZINC000460163972        1 TEMP              0 ****  ****    0 ROOT


##########                                Name:    ZINC000373864439
##########                DOCK_Rotatable_Bonds:                   7
##########                         Heavy_Atoms:                  23
##########                    Molecular_Weight:              344.45
##########                DOCK_Rotatable_Bonds:                   7
##########                       Formal_Charge:          -0.0300001
##########                     HBond_Acceptors:                   7
##########                        HBond_Donors:                   1
##########                         Heavy_Atoms:                  23
##########                          Grid_Score:          -30.568562
##########                     Grid_vdw_energy:          -30.363503
##########                      Grid_es_energy:           -0.205060
##########           Internal_energy_repulsive:           20.108894

@<TRIPOS>MOLECULE
ZINC000373864439
 48 49 1 0 0
SMALL
USER_CHARGES


@<TRIPOS>ATOM
      1 C1        -15.4696   -2.9152   57.0051 C.3     1  ZINC000373864439   -0.1500
      2 C2        -15.4300   -4.3449   57.5487 C.3     1  ZINC000373864439   -0.6300
      3 S3        -14.6048   -5.4257   56.3480 S.o2    1  ZINC000373864439    2.6100
      4 O4        -14.4003   -6.7192   56.8996 O.2     1  ZINC000373864439   -0.9500
      5 O5        -15.1737   -5.2618   55.0562 O.2     1  ZINC000373864439   -0.9600
      6 N6        -13.0796   -4.7966   56.2056 N.am    1  ZINC000373864439   -1.1200
      7 C7        -12.2090   -4.7132   57.3808 C.3     1  ZINC000373864439    0.1100
      8 C8        -11.3441   -3.4546   57.2865 C.3     1  ZINC000373864439    0.0500
      9 N9        -11.1760   -2.8745   58.6256 N.3     1  ZINC000373864439   -0.5300
     10 C10       -12.2437   -1.9100   58.9191 C.3     1  ZINC000373864439    0.0400
     11 C11       -12.1209   -1.4366   60.3692 C.3     1  ZINC000373864439   -0.1300
     12 C12       -10.7497   -0.7869   60.5746 C.3     1  ZINC000373864439    0.1800
     13 F13       -10.6368    0.3373   59.7494 F       1  ZINC000373864439   -0.2100
     14 C14       -10.6001   -0.3710   62.0154 C.ar    1  ZINC000373864439   -0.1500
     15 C15        -9.6360   -0.9617   62.8087 C.ar    1  ZINC000373864439   -0.0700
     16 C16        -9.4985   -0.5808   64.1310 C.ar    1  ZINC000373864439   -0.1600
     17 C17       -10.3248    0.3919   64.6620 C.ar    1  ZINC000373864439   -0.0700
     18 C18       -11.2904    0.9862   63.8725 C.ar    1  ZINC000373864439   -0.2100
     19 C19       -11.4268    0.6098   62.5444 C.ar    1  ZINC000373864439    0.1400
     20 O20       -12.3758    1.1927   61.7657 O.3     1  ZINC000373864439   -0.3100
     21 C21       -12.2225    2.5865   61.4901 C.3     1  ZINC000373864439    0.0200
     22 C22        -9.6562   -1.7968   60.2159 C.3     1  ZINC000373864439   -0.1300
     23 C23        -9.8504   -2.2596   58.7702 C.3     1  ZINC000373864439    0.0600
     24 H24       -16.0195   -2.8995   56.0641 H       1  ZINC000373864439    0.0700
     25 H25       -15.9654   -2.2659   57.7266 H       1  ZINC000373864439    0.0800
     26 H26       -14.4522   -2.5620   56.8374 H       1  ZINC000373864439    0.0700
     27 H27       -14.8800   -4.3607   58.4897 H       1  ZINC000373864439    0.1300
     28 H28       -16.4474   -4.6982   57.7165 H       1  ZINC000373864439    0.1300
     29 H29       -12.7627   -4.4833   55.3440 H       1  ZINC000373864439    0.4200
     30 H30       -12.8194   -4.6679   58.2828 H       1  ZINC000373864439    0.0700
     31 H31       -11.5668   -5.5931   57.4205 H       1  ZINC000373864439    0.0900
     32 H32       -10.3676   -3.7146   56.8780 H       1  ZINC000373864439    0.0900
     33 H33       -11.8293   -2.7284   56.6343 H       1  ZINC000373864439    0.0400
     34 H34       -12.1547   -1.0547   58.2492 H       1  ZINC000373864439    0.0400
     35 H35       -13.2133   -2.3859   58.7733 H       1  ZINC000373864439    0.0900
     36 H36       -12.9040   -0.7090   60.5821 H       1  ZINC000373864439    0.0800
     37 H37       -12.2236   -2.2894   61.0403 H       1  ZINC000373864439    0.1000
     38 H38        -8.9893   -1.7220   62.3962 H       1  ZINC000373864439    0.1300
     39 H39        -8.7446   -1.0445   64.7499 H       1  ZINC000373864439    0.1300
     40 H40       -10.2156    0.6874   65.6951 H       1  ZINC000373864439    0.1300
     41 H41       -11.9359    1.7459   64.2879 H       1  ZINC000373864439    0.1300
     42 H42       -13.0451    2.9250   60.8602 H       1  ZINC000373864439    0.1000
     43 H43       -12.2285    3.1447   62.4264 H       1  ZINC000373864439    0.0600
     44 H44       -11.2771    2.7530   60.9739 H       1  ZINC000373864439    0.0600
     45 H45        -8.6783   -1.3263   60.3191 H       1  ZINC000373864439    0.0800
     46 H46        -9.7201   -2.6552   60.8845 H       1  ZINC000373864439    0.1000
     47 H47        -9.0817   -2.9895   58.5162 H       1  ZINC000373864439    0.0800
     48 H48        -9.7725   -1.4028   58.1010 H       1  ZINC000373864439    0.0400
@<TRIPOS>BOND
     1     1     2    1
     2     1    24    1
     3     1    25    1
     4     1    26    1
     5     2     3    1
     6     2    27    1
     7     2    28    1
     8     3     4    2
     9     3     5    2
    10     3     6   am
    11     6     7    1
    12     6    29    1
    13     7     8    1
    14     7    30    1
    15     7    31    1
    16     8     9    1
    17     8    32    1
    18     8    33    1
    19     9    23    1
    20     9    10    1
    21    10    11    1
    22    10    34    1
    23    10    35    1
    24    11    12    1
    25    11    36    1
    26    11    37    1
    27    12    13    1
    28    12    14    1
    29    12    22    1
    30    14    19   ar
    31    14    15   ar
    32    15    16   ar
    33    15    38    1
    34    16    17   ar
    35    16    39    1
    36    17    18   ar
    37    17    40    1
    38    18    19   ar
    39    18    41    1
    40    19    20    1
    41    20    21    1
    42    21    42    1
    43    21    43    1
    44    21    44    1
    45    22    23    1
    46    22    45    1
    47    22    46    1
    48    23    47    1
    49    23    48    1
@<TRIPOS>SUBSTRUCTURE
     1 ZINC000373864439        1 TEMP              0 ****  ****    0 ROOT


##########                                Name:    ZINC000012979878
##########                DOCK_Rotatable_Bonds:                   7
##########                         Heavy_Atoms:                  26
##########                    Molecular_Weight:             388.874
##########                DOCK_Rotatable_Bonds:                   7
##########                       Formal_Charge:          -0.0100003
##########                     HBond_Acceptors:                   7
##########                        HBond_Donors:                   1
##########                         Heavy_Atoms:                  26
##########                          Grid_Score:          -30.551247
##########                     Grid_vdw_energy:          -31.056454
##########                      Grid_es_energy:            0.505208
##########           Internal_energy_repulsive:           10.627969

@<TRIPOS>MOLECULE
ZINC000012979878
 43 45 1 0 0
SMALL
USER_CHARGES


@<TRIPOS>ATOM
      1 C1         -7.9631    4.0627   51.5424 C.3     1  <0>         0.0300
      2 O2         -9.0202    3.2945   52.1208 O.3     1  <0>        -0.3100
      3 C3         -8.8772    1.9431   52.1117 C.ar    1  <0>         0.1500
      4 C4         -7.7752    1.3657   51.4967 C.ar    1  <0>        -0.2200
      5 C5         -7.6285   -0.0086   51.4862 C.ar    1  <0>        -0.0600
      6 C6         -8.5775   -0.8116   52.0878 C.ar    1  <0>        -0.1800
      7 C7         -9.6830   -0.2391   52.7051 C.ar    1  <0>         0.1800
      8 N8        -10.6438   -1.0521   53.3143 N.am    1  <0>        -0.6700
      9 C9        -11.7992   -1.3241   52.6758 C.2     1  <0>         0.6000
     10 O10       -12.0061   -0.8621   51.5691 O.2     1  <0>        -0.4900
     11 C11       -12.8069   -2.1768   53.3146 C.2     1  <0>        -0.3000
     12 C12       -14.0819   -1.8218   53.6136 C.2     1  <0>         0.1600
     13 C13       -14.6428   -0.4553   53.3149 C.3     1  <0>        -0.0900
     14 N14       -14.7830   -2.7696   54.1834 N.2     1  <0>        -0.4500
     15 C15       -14.1939   -3.9035   54.3894 C.2     1  <0>         0.0600
     16 C16       -14.8400   -5.1045   55.0307 C.3     1  <0>         0.1300
     17 O17       -14.8364   -4.9457   56.4509 O.3     1  <0>        -0.3000
     18 C18       -13.6341   -4.7205   57.0435 C.ar    1  <0>         0.1300
     19 C19       -13.3978   -3.5224   57.7015 C.ar    1  <0>        -0.2000
     20 C20       -12.1752   -3.2953   58.3032 C.ar    1  <0>        -0.0700
     21 C21       -11.1865   -4.2618   58.2495 C.ar    1  <0>        -0.0700
     22 Cl22       -9.6507   -3.9740   59.0060 Cl      1  <0>        -0.0700
     23 C23       -11.4206   -5.4577   57.5941 C.ar    1  <0>        -0.0700
     24 C24       -12.6439   -5.6908   56.9961 C.ar    1  <0>        -0.1300
     25 S25       -12.5813   -3.8483   53.8245 S.3     1  <0>         0.2000
     26 C26        -9.8289    1.1408   52.7215 C.ar    1  <0>        -0.1500
     27 H27        -7.0344    3.8629   52.0769 H       1  <0>         0.0600
     28 H28        -7.8456    3.7877   50.4943 H       1  <0>         0.0600
     29 H29        -8.2031    5.1235   51.6150 H       1  <0>         0.1000
     30 H30        -7.0315    1.9912   51.0253 H       1  <0>         0.1300
     31 H31        -6.7704   -0.4553   51.0062 H       1  <0>         0.1300
     32 H32        -8.4605   -1.8852   52.0782 H       1  <0>         0.1300
     33 H33       -10.4790   -1.4203   54.1964 H       1  <0>         0.4100
     34 H34       -15.0862   -0.4543   52.3191 H       1  <0>         0.0900
     35 H35       -15.4059   -0.2066   54.0526 H       1  <0>         0.0800
     36 H36       -13.8423    0.2831   53.3570 H       1  <0>         0.1000
     37 H37       -15.8673   -5.1960   54.6780 H       1  <0>         0.0900
     38 H38       -14.2828   -6.0026   54.7641 H       1  <0>         0.1000
     39 H39       -14.1689   -2.7674   57.7430 H       1  <0>         0.1400
     40 H40       -11.9908   -2.3626   58.8156 H       1  <0>         0.1400
     41 H41       -10.6477   -6.2111   57.5535 H       1  <0>         0.1400
     42 H42       -12.8261   -6.6243   56.4845 H       1  <0>         0.1400
     43 H43       -10.6869    1.5884   53.2010 H       1  <0>         0.1400
@<TRIPOS>BOND
     1     1     2    1
     2     1    27    1
     3     1    28    1
     4     1    29    1
     5     2     3    1
     6     3    26   ar
     7     3     4   ar
     8     4     5   ar
     9     4    30    1
    10     5     6   ar
    11     5    31    1
    12     6     7   ar
    13     6    32    1
    14     7     8    1
    15     7    26   ar
    16     8     9   am
    17     8    33    1
    18     9    10    2
    19     9    11    1
    20    11    25    1
    21    11    12    2
    22    12    13    1
    23    12    14    1
    24    13    34    1
    25    13    35    1
    26    13    36    1
    27    14    15    2
    28    15    16    1
    29    15    25    1
    30    16    17    1
    31    16    37    1
    32    16    38    1
    33    17    18    1
    34    18    24   ar
    35    18    19   ar
    36    19    20   ar
    37    19    39    1
    38    20    21   ar
    39    20    40    1
    40    21    22    1
    41    21    23   ar
    42    23    24   ar
    43    23    41    1
    44    24    42    1
    45    26    43    1
@<TRIPOS>SUBSTRUCTURE
     1 <0>         1 TEMP              0 ****  ****    0 ROOT


##########                                Name:    ZINC001002468398
##########                DOCK_Rotatable_Bonds:                   7
##########                         Heavy_Atoms:                  24
##########                    Molecular_Weight:             341.358
##########                DOCK_Rotatable_Bonds:                   7
##########                       Formal_Charge:           0.0100001
##########                     HBond_Acceptors:                   8
##########                        HBond_Donors:                   0
##########                         Heavy_Atoms:                  24
##########                          Grid_Score:          -30.547493
##########                     Grid_vdw_energy:          -28.856920
##########                      Grid_es_energy:           -1.690573
##########           Internal_energy_repulsive:           19.879150

@<TRIPOS>MOLECULE
ZINC001002468398
 45 47 1 0 0
SMALL
USER_CHARGES


@<TRIPOS>ATOM
      1 C1        -11.5538    3.6005   62.2637 C.3     1  ZINC001002468398   -0.1400
      2 C2        -11.3865    2.2508   61.5627 C.3     1  ZINC001002468398   -0.0500
      3 C3        -10.7066    1.2815   62.4950 C.2     1  ZINC001002468398    0.0500
      4 C4        -10.7136   -0.0759   62.3979 C.2     1  ZINC001002468398   -0.0800
      5 C5        -11.3882   -0.8763   61.3600 C.2     1  ZINC001002468398    0.6000
      6 O6        -12.5455   -0.6426   61.0684 O.2     1  ZINC001002468398   -0.5300
      7 N7        -10.7226   -1.8672   60.7342 N.am    1  ZINC001002468398   -0.6000
      8 C8         -9.3285   -2.1488   61.0856 C.3     1  ZINC001002468398    0.0900
      9 C9        -11.3930   -2.6626   59.7028 C.3     1  ZINC001002468398    0.1000
     10 C10       -10.7400   -2.3924   58.3457 C.3     1  ZINC001002468398    0.1300
     11 H11        -9.7983   -2.9364   58.2727 H       1  ZINC001002468398    0.0800
     12 C12       -10.4867   -0.8795   58.1770 C.3     1  ZINC001002468398   -0.1300
     13 C13       -10.8112   -0.6377   56.6792 C.3     1  ZINC001002468398   -0.1300
     14 C14       -11.9841   -1.6236   56.4519 C.3     1  ZINC001002468398    0.1000
     15 N15       -11.6438   -2.8101   57.2639 N.am    1  ZINC001002468398   -0.6100
     16 C16       -12.0897   -4.0636   57.0484 C.2     1  ZINC001002468398    0.5600
     17 O17       -11.7435   -4.9650   57.7824 O.2     1  ZINC001002468398   -0.5100
     18 C18       -13.0187   -4.3451   55.8957 C.3     1  ZINC001002468398   -0.2000
     19 H19       -12.5523   -4.3681   54.9108 H       1  ZINC001002468398    0.1500
     20 C20       -14.4456   -3.8010   55.9891 C.3     1  ZINC001002468398   -0.1500
     21 C21       -14.1864   -5.3014   56.1466 C.3     1  ZINC001002468398    0.2300
     22 F22       -14.5741   -6.1379   55.0944 F       1  ZINC001002468398   -0.1500
     23 F23       -14.3104   -5.8471   57.4289 F       1  ZINC001002468398   -0.1400
     24 N24        -9.9800   -0.5553   63.4390 N.2     1  ZINC001002468398   -0.4600
     25 C25        -9.5472    0.4521   64.1361 C.2     1  ZINC001002468398    0.1700
     26 O26        -9.9739    1.5928   63.5760 O.3     1  ZINC001002468398   -0.2000
     27 H27       -12.1609    3.4717   63.1598 H       1  ZINC001002468398    0.0600
     28 H28       -10.5742    3.9897   62.5413 H       1  ZINC001002468398    0.0600
     29 H29       -12.0456    4.3016   61.5894 H       1  ZINC001002468398    0.0700
     30 H30       -12.3660    1.8617   61.2851 H       1  ZINC001002468398    0.1200
     31 H31       -10.7794    2.3796   60.6667 H       1  ZINC001002468398    0.0900
     32 H32        -9.2738   -2.4709   62.1255 H       1  ZINC001002468398    0.0700
     33 H33        -8.9434   -2.9382   60.4400 H       1  ZINC001002468398    0.0700
     34 H34        -8.7309   -1.2470   60.9526 H       1  ZINC001002468398    0.0700
     35 H35       -11.3031   -3.7216   59.9448 H       1  ZINC001002468398    0.0900
     36 H36       -12.4470   -2.3878   59.6599 H       1  ZINC001002468398    0.0900
     37 H37       -11.1566   -0.3028   58.8147 H       1  ZINC001002468398    0.1000
     38 H38        -9.4456   -0.6367   58.3902 H       1  ZINC001002468398    0.0800
     39 H39       -11.1273    0.3915   56.5092 H       1  ZINC001002468398    0.0900
     40 H40        -9.9591   -0.8921   56.0488 H       1  ZINC001002468398    0.0800
     41 H41       -12.9210   -1.1841   56.7943 H       1  ZINC001002468398    0.0800
     42 H42       -12.0537   -1.8940   55.3982 H       1  ZINC001002468398    0.0800
     43 H43       -14.7125   -3.2393   56.8843 H       1  ZINC001002468398    0.1300
     44 H44       -14.9181   -3.4663   55.0656 H       1  ZINC001002468398    0.1400
     45 H45        -8.9365    0.3816   65.0241 H       1  ZINC001002468398    0.2600
@<TRIPOS>BOND
     1     1     2    1
     2     1    27    1
     3     1    28    1
     4     1    29    1
     5     2     3    1
     6     2    30    1
     7     2    31    1
     8     3    26    1
     9     3     4    2
    10     4     5    1
    11     4    24    1
    12     5     6    2
    13     5     7   am
    14     7     8    1
    15     7     9    1
    16     8    32    1
    17     8    33    1
    18     8    34    1
    19     9    10    1
    20     9    35    1
    21     9    36    1
    22    10    11    1
    23    10    15    1
    24    10    12    1
    25    12    13    1
    26    12    37    1
    27    12    38    1
    28    13    14    1
    29    13    39    1
    30    13    40    1
    31    14    15    1
    32    14    41    1
    33    14    42    1
    34    15    16   am
    35    16    17    2
    36    16    18    1
    37    18    19    1
    38    18    21    1
    39    18    20    1
    40    20    21    1
    41    20    43    1
    42    20    44    1
    43    21    22    1
    44    21    23    1
    45    24    25    2
    46    25    26    1
    47    25    45    1
@<TRIPOS>SUBSTRUCTURE
     1 ZINC001002468398        1 TEMP              0 ****  ****    0 ROOT


##########                                Name:    ZINC000655982608
##########                DOCK_Rotatable_Bonds:                   5
##########                         Heavy_Atoms:                  29
##########                    Molecular_Weight:             388.469
##########                DOCK_Rotatable_Bonds:                   5
##########                       Formal_Charge:          -0.0200006
##########                     HBond_Acceptors:                   6
##########                        HBond_Donors:                   0
##########                         Heavy_Atoms:                  29
##########                          Grid_Score:          -30.523108
##########                     Grid_vdw_energy:          -29.430019
##########                      Grid_es_energy:           -1.093088
##########           Internal_energy_repulsive:           48.166740

@<TRIPOS>MOLECULE
ZINC000655982608
 53 57 1 0 0
SMALL
USER_CHARGES


@<TRIPOS>ATOM
      1 C1        -11.8728   -1.6941   51.5919 C.3     1  ZINC000655982608   -0.1900
      2 C2        -13.0112   -1.0848   52.4127 C.3     1  ZINC000655982608    0.0800
      3 H3        -13.6625   -1.8795   52.7767 H       1  ZINC000655982608    0.1000
      4 C4        -12.4289   -0.3178   53.6016 C.3     1  ZINC000655982608   -0.0300
      5 C5        -12.2306   -1.2615   54.7597 C.2     1  ZINC000655982608    0.2000
      6 N6        -12.3534   -0.9721   56.0327 N.2     1  ZINC000655982608   -0.4800
      7 C7        -12.0853   -2.1139   56.6911 C.2     1  ZINC000655982608    0.1700
      8 C8        -12.0938   -2.3046   58.1859 C.3     1  ZINC000655982608   -0.0100
      9 H9        -13.1078   -2.4681   58.5507 H       1  ZINC000655982608    0.1300
     10 C10       -11.1623   -3.4670   58.6007 C.3     1  ZINC000655982608   -0.1400
     11 C11       -10.5418   -3.0000   59.8991 C.2     1  ZINC000655982608    0.5200
     12 O12        -9.9714   -3.7170   60.6938 O.2     1  ZINC000655982608   -0.5000
     13 N13       -10.7142   -1.6747   60.0434 N.am    1  ZINC000655982608   -0.5600
     14 C14       -10.2638   -0.9351   61.1425 C.ar    1  ZINC000655982608    0.1600
     15 C15        -9.5565   -1.5619   62.1602 C.ar    1  ZINC000655982608   -0.1600
     16 C16        -9.1133   -0.8292   63.2438 C.ar    1  ZINC000655982608   -0.0900
     17 C17        -9.3736    0.5270   63.3163 C.ar    1  ZINC000655982608   -0.1400
     18 C18       -10.0779    1.1539   62.3050 C.ar    1  ZINC000655982608   -0.0900
     19 C19       -10.5181    0.4281   61.2154 C.ar    1  ZINC000655982608   -0.1600
     20 C20       -11.4365   -1.1028   58.9002 C.3     1  ZINC000655982608    0.1100
     21 N21       -11.8181   -3.0225   55.8014 N.2     1  ZINC000655982608   -0.3700
     22 O22       -11.9017   -2.5547   54.6853 O.3     1  ZINC000655982608    0.0900
     23 N23       -13.7857   -0.1652   51.5687 N.3     1  ZINC000655982608   -0.4700
     24 C24       -12.9629    0.9905   51.1503 C.3     1  ZINC000655982608    0.0300
     25 C25       -13.5568    1.3457   49.7679 C.3     1  ZINC000655982608   -0.0800
     26 C26       -14.1473    0.0282   49.3065 C.ar    1  ZINC000655982608   -0.1400
     27 C27       -14.5597   -0.4042   48.0640 C.ar    1  ZINC000655982608   -0.0800
     28 C28       -15.0680   -1.6814   47.9078 C.ar    1  ZINC000655982608   -0.1400
     29 C29       -15.1613   -2.5240   49.0000 C.ar    1  ZINC000655982608   -0.0900
     30 C30       -14.7520   -2.0955   50.2458 C.ar    1  ZINC000655982608   -0.1400
     31 C31       -14.2419   -0.8093   50.4120 C.ar    1  ZINC000655982608    0.1000
     32 H32       -11.3672   -2.4577   52.1828 H       1  ZINC000655982608    0.0700
     33 H33       -12.2788   -2.1450   50.6863 H       1  ZINC000655982608    0.0700
     34 H34       -11.1616   -0.9136   51.3217 H       1  ZINC000655982608    0.0700
     35 H35       -11.4701    0.1170   53.3191 H       1  ZINC000655982608    0.1200
     36 H36       -13.1161    0.4762   53.8936 H       1  ZINC000655982608    0.1100
     37 H37       -11.7378   -4.3790   58.7593 H       1  ZINC000655982608    0.1200
     38 H38       -10.3924   -3.6269   57.8459 H       1  ZINC000655982608    0.1200
     39 H39        -9.3536   -2.6212   62.1045 H       1  ZINC000655982608    0.1200
     40 H40        -8.5633   -1.3160   64.0355 H       1  ZINC000655982608    0.1300
     41 H41        -9.0262    1.0976   64.1649 H       1  ZINC000655982608    0.1200
     42 H42       -10.2801    2.2131   62.3648 H       1  ZINC000655982608    0.1300
     43 H43       -11.0682    0.9183   60.4258 H       1  ZINC000655982608    0.1500
     44 H44       -10.7413   -0.5995   58.2284 H       1  ZINC000655982608    0.0900
     45 H45       -12.1991   -0.4054   59.2467 H       1  ZINC000655982608    0.1000
     46 H46       -13.0803    1.8210   51.8465 H       1  ZINC000655982608    0.1000
     47 H47       -11.9146    0.7062   51.0593 H       1  ZINC000655982608    0.0700
     48 H48       -14.3337    2.1041   49.8648 H       1  ZINC000655982608    0.0900
     49 H49       -12.7745    1.6781   49.0856 H       1  ZINC000655982608    0.0800
     50 H50       -14.4863    0.2551   47.2117 H       1  ZINC000655982608    0.1200
     51 H51       -15.3916   -2.0195   46.9344 H       1  ZINC000655982608    0.1200
     52 H52       -15.5565   -3.5216   48.8774 H       1  ZINC000655982608    0.1300
     53 H53       -14.8279   -2.7584   51.0950 H       1  ZINC000655982608    0.1200
@<TRIPOS>BOND
     1     1     2    1
     2     1    32    1
     3     1    33    1
     4     1    34    1
     5     2     3    1
     6     2     4    1
     7     2    23    1
     8     4     5    1
     9     4    35    1
    10     4    36    1
    11     5    22    1
    12     5     6    2
    13     6     7    1
    14     7     8    1
    15     7    21    2
    16     8     9    1
    17     8    20    1
    18     8    10    1
    19    10    11    1
    20    10    37    1
    21    10    38    1
    22    11    12    2
    23    11    13   am
    24    13    14    1
    25    13    20    1
    26    14    19   ar
    27    14    15   ar
    28    15    16   ar
    29    15    39    1
    30    16    17   ar
    31    16    40    1
    32    17    18   ar
    33    17    41    1
    34    18    19   ar
    35    18    42    1
    36    19    43    1
    37    20    44    1
    38    20    45    1
    39    21    22    1
    40    23    31    1
    41    23    24    1
    42    24    25    1
    43    24    46    1
    44    24    47    1
    45    25    26    1
    46    25    48    1
    47    25    49    1
    48    26    31   ar
    49    26    27   ar
    50    27    28   ar
    51    27    50    1
    52    28    29   ar
    53    28    51    1
    54    29    30   ar
    55    29    52    1
    56    30    31   ar
    57    30    53    1
@<TRIPOS>SUBSTRUCTURE
     1 ZINC000655982608        1 TEMP              0 ****  ****    0 ROOT


##########                                Name:    ZINC000623581528
##########                DOCK_Rotatable_Bonds:                   5
##########                         Heavy_Atoms:                  26
##########                    Molecular_Weight:             355.369
##########                DOCK_Rotatable_Bonds:                   5
##########                       Formal_Charge:        -4.47035e-07
##########                     HBond_Acceptors:                   7
##########                        HBond_Donors:                   2
##########                         Heavy_Atoms:                  26
##########                          Grid_Score:          -30.508018
##########                     Grid_vdw_energy:          -25.329300
##########                      Grid_es_energy:           -5.178720
##########           Internal_energy_repulsive:            4.736637

@<TRIPOS>MOLECULE
ZINC000623581528
 44 47 1 0 0
SMALL
USER_CHARGES


@<TRIPOS>ATOM
      1 C1        -11.9181   -3.8686   56.3300 C.3     1  ZINC000623581528    0.1000
      2 N2        -11.1566   -3.8765   57.5816 N.am    1  ZINC000623581528   -0.5500
      3 C3        -10.5454   -4.9422   58.1360 C.2     1  ZINC000623581528    0.6300
      4 O4        -10.5368   -6.0663   57.6726 O.2     1  ZINC000623581528   -0.4800
      5 O5         -9.9478   -4.5703   59.2790 O.3     1  ZINC000623581528   -0.2300
      6 C6        -10.1638   -3.2481   59.4848 C.ar    1  ZINC000623581528    0.0400
      7 C7         -9.7805   -2.3728   60.4884 C.ar    1  ZINC000623581528   -0.0800
      8 C8        -10.1598   -1.0456   60.4272 C.ar    1  ZINC000623581528   -0.0900
      9 C9        -10.9217   -0.5852   59.3681 C.ar    1  ZINC000623581528   -0.0900
     10 C10       -11.3304    0.8643   59.3105 C.3     1  ZINC000623581528    0.1800
     11 N11       -10.1349    1.7050   59.2095 N.am    1  ZINC000623581528   -0.7400
     12 C12        -9.4691    1.7921   58.0409 C.2     1  ZINC000623581528    0.7100
     13 O13        -9.8598    1.1718   57.0709 O.2     1  ZINC000623581528   -0.5800
     14 N14        -8.3703    2.5669   57.9476 N.am    1  ZINC000623581528   -0.7300
     15 C15        -7.6476    2.6630   56.6768 C.3     1  ZINC000623581528    0.2000
     16 H16        -7.8359    1.7791   56.0676 H       1  ZINC000623581528    0.1000
     17 C17        -6.1340    2.8247   56.9324 C.3     1  ZINC000623581528   -0.1300
     18 C18        -5.9614    4.3585   56.9413 C.3     1  ZINC000623581528   -0.0800
     19 C19        -7.0903    4.8891   56.0837 C.ar    1  ZINC000623581528   -0.1000
     20 C20        -7.2558    6.1264   55.4843 C.ar    1  ZINC000623581528   -0.0800
     21 C21        -8.3853    6.3908   54.7348 C.ar    1  ZINC000623581528   -0.1400
     22 C22        -9.3561    5.4159   54.5819 C.ar    1  ZINC000623581528    0.0900
     23 F23       -10.4619    5.6711   53.8489 F       1  ZINC000623581528   -0.1400
     24 C24        -9.1917    4.1794   55.1809 C.ar    1  ZINC000623581528   -0.1200
     25 C25        -8.0613    3.9133   55.9306 C.ar    1  ZINC000623581528   -0.0900
     26 C26       -11.3088   -1.4505   58.3627 C.ar    1  ZINC000623581528   -0.0800
     27 C27       -10.9266   -2.7815   58.4139 C.ar    1  ZINC000623581528    0.0700
     28 H28       -11.2479   -3.6509   55.4984 H       1  ZINC000623581528    0.0800
     29 H29       -12.3792   -4.8447   56.1791 H       1  ZINC000623581528    0.0900
     30 H30       -12.6936   -3.1044   56.3814 H       1  ZINC000623581528    0.0900
     31 H31        -9.1864   -2.7277   61.3175 H       1  ZINC000623581528    0.1500
     32 H32        -9.8605   -0.3645   61.2101 H       1  ZINC000623581528    0.1500
     33 H33       -11.9648    1.0286   58.4395 H       1  ZINC000623581528    0.0800
     34 H34       -11.8810    1.1227   60.2151 H       1  ZINC000623581528    0.0800
     35 H35        -9.8226    2.1989   59.9837 H       1  ZINC000623581528    0.4000
     36 H36        -8.0578    3.0608   58.7218 H       1  ZINC000623581528    0.4000
     37 H37        -5.8561    2.3980   57.8962 H       1  ZINC000623581528    0.0900
     38 H38        -5.5547    2.3743   56.1265 H       1  ZINC000623581528    0.0900
     39 H39        -6.0458    4.7427   57.9578 H       1  ZINC000623581528    0.0800
     40 H40        -4.9983    4.6331   56.5111 H       1  ZINC000623581528    0.0800
     41 H41        -6.4988    6.8874   55.6032 H       1  ZINC000623581528    0.1300
     42 H42        -8.5110    7.3569   54.2687 H       1  ZINC000623581528    0.1400
     43 H43        -9.9489    3.4186   55.0619 H       1  ZINC000623581528    0.1400
     44 H44       -11.9035   -1.0893   57.5367 H       1  ZINC000623581528    0.1400
@<TRIPOS>BOND
     1     1     2    1
     2     1    28    1
     3     1    29    1
     4     1    30    1
     5     2    27    1
     6     2     3   am
     7     3     4    2
     8     3     5    1
     9     5     6    1
    10     6    27   ar
    11     6     7   ar
    12     7     8   ar
    13     7    31    1
    14     8     9   ar
    15     8    32    1
    16     9    10    1
    17     9    26   ar
    18    10    11    1
    19    10    33    1
    20    10    34    1
    21    11    12   am
    22    11    35    1
    23    12    13    2
    24    12    14   am
    25    14    15    1
    26    14    36    1
    27    15    16    1
    28    15    25    1
    29    15    17    1
    30    17    18    1
    31    17    37    1
    32    17    38    1
    33    18    19    1
    34    18    39    1
    35    18    40    1
    36    19    25   ar
    37    19    20   ar
    38    20    21   ar
    39    20    41    1
    40    21    22   ar
    41    21    42    1
    42    22    23    1
    43    22    24   ar
    44    24    25   ar
    45    24    43    1
    46    26    27   ar
    47    26    44    1
@<TRIPOS>SUBSTRUCTURE
     1 ZINC000623581528        1 TEMP              0 ****  ****    0 ROOT


##########                                Name:    ZINC001248546333
##########                DOCK_Rotatable_Bonds:                   6
##########                         Heavy_Atoms:                  27
##########                    Molecular_Weight:             378.397
##########                DOCK_Rotatable_Bonds:                   6
##########                       Formal_Charge:         3.94881e-07
##########                     HBond_Acceptors:                   8
##########                        HBond_Donors:                   1
##########                         Heavy_Atoms:                  27
##########                          Grid_Score:          -30.491756
##########                     Grid_vdw_energy:          -29.284595
##########                      Grid_es_energy:           -1.207160
##########           Internal_energy_repulsive:           11.489895

@<TRIPOS>MOLECULE
ZINC001248546333
 48 50 1 0 0
SMALL
USER_CHARGES


@<TRIPOS>ATOM
      1 C1         -2.7253    2.7616   56.7936 C.3     1  ZINC001248546333   -0.1200
      2 C2         -3.9387    2.9067   55.9117 C.ar    1  ZINC001248546333   -0.0800
      3 C3         -3.7898    3.2886   54.5906 C.ar    1  ZINC001248546333   -0.1200
      4 C4         -4.8988    3.4240   53.7742 C.ar    1  ZINC001248546333   -0.1100
      5 C5         -6.1609    3.1781   54.2738 C.ar    1  ZINC001248546333   -0.1100
      6 C6         -6.3179    2.7919   55.6055 C.ar    1  ZINC001248546333   -0.0600
      7 C7         -7.6674    2.5268   56.1474 C.2     1  ZINC001248546333   -0.0600
      8 C8         -8.5214    1.8945   55.3794 C.2     1  ZINC001248546333   -0.1700
      9 C9         -9.9305    1.5750   55.7954 C.3     1  ZINC001248546333    0.1500
     10 N10       -10.0797    1.8365   57.2342 N.am    1  ZINC001248546333   -0.6300
     11 C11       -10.7387    0.9785   58.0379 C.2     1  ZINC001248546333    0.7200
     12 O12       -11.2245   -0.0359   57.5760 O.2     1  ZINC001248546333   -0.5800
     13 N13       -10.8595    1.2450   59.3535 N.am    1  ZINC001248546333   -0.7500
     14 C14       -11.5759    0.3124   60.2271 C.3     1  ZINC001248546333    0.2000
     15 C15       -10.6649   -0.1317   61.3424 C.2     1  ZINC001248546333    0.0700
     16 C16       -10.4768    0.5061   62.5209 C.2     1  ZINC001248546333   -0.2000
     17 C17        -9.5563   -0.2350   63.2692 C.2     1  ZINC001248546333   -0.0200
     18 C18        -9.0569    0.1105   64.6484 C.3     1  ZINC001248546333    0.5600
     19 F19       -10.0205    0.8742   65.3156 F       1  ZINC001248546333   -0.1700
     20 F20        -8.8160   -1.0664   65.3654 F       1  ZINC001248546333   -0.1700
     21 F21        -7.8703    0.8443   64.5445 F       1  ZINC001248546333   -0.1600
     22 N22        -9.2045   -1.2802   62.5653 N.2     1  ZINC001248546333   -0.2200
     23 N23        -9.8950   -1.2401   61.3471 N.pl3   1  ZINC001248546333   -0.3400
     24 C24        -9.7924   -2.2229   60.2655 C.3     1  ZINC001248546333    0.0900
     25 C25        -9.4803    3.0743   57.7623 C.3     1  ZINC001248546333    0.1300
     26 C26        -7.9659    2.9938   57.5410 C.3     1  ZINC001248546333   -0.1000
     27 C27        -5.1953    2.6525   56.4221 C.ar    1  ZINC001248546333   -0.1100
     28 H28        -2.3473    1.7415   56.7266 H       1  ZINC001248546333    0.0700
     29 H29        -1.9530    3.4576   56.4664 H       1  ZINC001248546333    0.0700
     30 H30        -2.9983    2.9809   57.8259 H       1  ZINC001248546333    0.0700
     31 H31        -2.8039    3.4824   54.1947 H       1  ZINC001248546333    0.1200
     32 H32        -4.7759    3.7234   52.7438 H       1  ZINC001248546333    0.1200
     33 H33        -7.0257    3.2845   53.6356 H       1  ZINC001248546333    0.1200
     34 H34        -8.1959    1.5874   54.3965 H       1  ZINC001248546333    0.1200
     35 H35       -10.6260    2.2016   55.2372 H       1  ZINC001248546333    0.0800
     36 H36       -10.1410    0.5250   55.5922 H       1  ZINC001248546333    0.0800
     37 H37       -10.4719    2.0543   59.7220 H       1  ZINC001248546333    0.4000
     38 H38       -12.4507    0.8081   60.6481 H       1  ZINC001248546333    0.1000
     39 H39       -11.8932   -0.5557   59.6495 H       1  ZINC001248546333    0.0900
     40 H40       -10.9530    1.4252   62.8289 H       1  ZINC001248546333    0.1700
     41 H41       -10.5349   -3.0068   60.4151 H       1  ZINC001248546333    0.0900
     42 H42        -9.9711   -1.7308   59.3094 H       1  ZINC001248546333    0.1000
     43 H43        -8.7949   -2.6621   60.2672 H       1  ZINC001248546333    0.1000
     44 H44        -9.8883    3.9359   57.2339 H       1  ZINC001248546333    0.0700
     45 H45        -9.6917    3.1606   58.8281 H       1  ZINC001248546333    0.1000
     46 H46        -7.5328    2.2991   58.2608 H       1  ZINC001248546333    0.0800
     47 H47        -7.5272    3.9807   57.6879 H       1  ZINC001248546333    0.0900
     48 H48        -5.3101    2.3540   57.4537 H       1  ZINC001248546333    0.1200
@<TRIPOS>BOND
     1     1     2    1
     2     1    28    1
     3     1    29    1
     4     1    30    1
     5     2    27   ar
     6     2     3   ar
     7     3     4   ar
     8     3    31    1
     9     4     5   ar
    10     4    32    1
    11     5     6   ar
    12     5    33    1
    13     6     7    1
    14     6    27   ar
    15     7    26    1
    16     7     8    2
    17     8     9    1
    18     8    34    1
    19     9    10    1
    20     9    35    1
    21     9    36    1
    22    10    11   am
    23    10    25    1
    24    11    12    2
    25    11    13   am
    26    13    14    1
    27    13    37    1
    28    14    15    1
    29    14    38    1
    30    14    39    1
    31    15    23    1
    32    15    16    2
    33    16    17    1
    34    16    40    1
    35    17    18    1
    36    17    22    2
    37    18    19    1
    38    18    20    1
    39    18    21    1
    40    22    23    1
    41    23    24    1
    42    24    41    1
    43    24    42    1
    44    24    43    1
    45    25    26    1
    46    25    44    1
    47    25    45    1
    48    26    46    1
    49    26    47    1
    50    27    48    1
@<TRIPOS>SUBSTRUCTURE
     1 ZINC001248546333        1 TEMP              0 ****  ****    0 ROOT


##########                                Name:    ZINC000486710336
##########                DOCK_Rotatable_Bonds:                   6
##########                         Heavy_Atoms:                  31
##########                    Molecular_Weight:             420.555
##########                DOCK_Rotatable_Bonds:                   6
##########                       Formal_Charge:         1.49012e-07
##########                     HBond_Acceptors:                   6
##########                        HBond_Donors:                   1
##########                         Heavy_Atoms:                  31
##########                          Grid_Score:          -30.476713
##########                     Grid_vdw_energy:          -28.942707
##########                      Grid_es_energy:           -1.534006
##########           Internal_energy_repulsive:           54.433403

@<TRIPOS>MOLECULE
ZINC000486710336
 63 67 1 0 0
SMALL
USER_CHARGES


@<TRIPOS>ATOM
      1 C1        -11.0061    1.0999   61.4877 C.3     1  ZINC000486710336    0.1000
      2 N2        -10.9822    0.1501   60.3726 N.pl3   1  ZINC000486710336   -0.3900
      3 N3        -11.5006   -1.1511   60.3857 N.2     1  ZINC000486710336   -0.2800
      4 C4        -11.2942   -1.6903   59.2114 C.2     1  ZINC000486710336    0.1000
      5 C5        -11.6965   -3.0826   58.7984 C.3     1  ZINC000486710336   -0.0100
      6 C6        -12.9393   -3.0364   57.8752 C.3     1  ZINC000486710336   -0.1200
      7 C7        -12.8353   -4.3705   57.0951 C.3     1  ZINC000486710336   -0.1200
      8 C8        -11.3235   -4.5434   56.8411 C.3     1  ZINC000486710336   -0.1200
      9 C9        -10.5994   -3.7246   57.9242 C.3     1  ZINC000486710336   -0.1100
     10 C10       -10.6380   -0.7570   58.4054 C.2     1  ZINC000486710336   -0.2600
     11 C11       -10.4585    0.3762   59.1397 C.2     1  ZINC000486710336    0.3000
     12 N12        -9.8441    1.5484   58.7082 N.am    1  ZINC000486710336   -0.6200
     13 C13       -10.1446    2.0608   57.4985 C.2     1  ZINC000486710336    0.5100
     14 O14       -10.9499    1.4993   56.7844 O.2     1  ZINC000486710336   -0.4800
     15 C15        -9.4869    3.3190   57.0364 C.2     1  ZINC000486710336    0.5300
     16 O16        -9.2067    4.1868   57.8373 O.2     1  ZINC000486710336   -0.5100
     17 N17        -9.2044    3.4913   55.7299 N.am    1  ZINC000486710336   -0.5800
     18 C18        -9.4890    2.5318   54.6477 C.3     1  ZINC000486710336    0.1000
     19 C19        -8.9540    3.1509   53.3373 C.3     1  ZINC000486710336   -0.0600
     20 H20        -9.7490    3.6705   52.8024 H       1  ZINC000486710336    0.1000
     21 C21        -8.3269    2.0947   52.4642 C.ar    1  ZINC000486710336   -0.0700
     22 C22        -8.6387    0.7622   52.6591 C.ar    1  ZINC000486710336   -0.1100
     23 C23        -8.0636   -0.2066   51.8582 C.ar    1  ZINC000486710336   -0.1200
     24 C24        -7.1769    0.1572   50.8620 C.ar    1  ZINC000486710336   -0.1200
     25 C25        -6.8657    1.4897   50.6665 C.ar    1  ZINC000486710336   -0.1200
     26 C26        -7.4442    2.4589   51.4646 C.ar    1  ZINC000486710336   -0.1100
     27 C27        -7.8807    4.1599   53.8493 C.3     1  ZINC000486710336   -0.0800
     28 H28        -7.6815    4.9612   53.1377 H       1  ZINC000486710336    0.1100
     29 C29        -6.6290    3.3406   54.1708 C.3     1  ZINC000486710336   -0.1100
     30 C30        -5.6738    4.1393   55.0543 C.3     1  ZINC000486710336   -0.1200
     31 C31        -6.3772    4.4528   56.3792 C.3     1  ZINC000486710336   -0.1100
     32 C32        -7.5887    5.3377   56.0855 C.3     1  ZINC000486710336   -0.1400
     33 C33        -8.5658    4.6678   55.1340 C.3     1  ZINC000486710336    0.1400
     34 H34        -9.3469    5.3836   54.8775 H       1  ZINC000486710336    0.0800
     35 H35       -11.9216    1.6899   61.4428 H       1  ZINC000486710336    0.0800
     36 H36       -10.9713    0.5543   62.4306 H       1  ZINC000486710336    0.1000
     37 H37       -10.1433    1.7625   61.4192 H       1  ZINC000486710336    0.0800
     38 H38       -11.8934   -3.6980   59.6763 H       1  ZINC000486710336    0.0900
     39 H39       -13.8564   -3.0035   58.4634 H       1  ZINC000486710336    0.0700
     40 H40       -12.8843   -2.1862   57.1954 H       1  ZINC000486710336    0.0800
     41 H41       -13.2178   -5.1951   57.6966 H       1  ZINC000486710336    0.0700
     42 H42       -13.3755   -4.3033   56.1507 H       1  ZINC000486710336    0.0700
     43 H43       -11.0492   -5.5952   56.9225 H       1  ZINC000486710336    0.0600
     44 H44       -11.0653   -4.1652   55.8521 H       1  ZINC000486710336    0.0600
     45 H45        -9.9898   -2.9489   57.4606 H       1  ZINC000486710336    0.0700
     46 H46        -9.9736   -4.3789   58.5311 H       1  ZINC000486710336    0.0700
     47 H47       -10.3310   -0.9061   57.3807 H       1  ZINC000486710336    0.1700
     48 H48        -9.1997    1.9964   59.2783 H       1  ZINC000486710336    0.4200
     49 H49        -8.9817    1.5876   54.8459 H       1  ZINC000486710336    0.0900
     50 H50       -10.5639    2.3690   54.5693 H       1  ZINC000486710336    0.0800
     51 H51        -9.3315    0.4781   53.4375 H       1  ZINC000486710336    0.1200
     52 H52        -8.3067   -1.2477   52.0110 H       1  ZINC000486710336    0.1200
     53 H53        -6.7270   -0.5999   50.2367 H       1  ZINC000486710336    0.1200
     54 H54        -6.1727    1.7739   49.8884 H       1  ZINC000486710336    0.1200
     55 H55        -7.2011    3.5000   51.3119 H       1  ZINC000486710336    0.1200
     56 H56        -6.9210    2.4281   54.6908 H       1  ZINC000486710336    0.0700
     57 H57        -6.1236    3.0775   53.2416 H       1  ZINC000486710336    0.0700
     58 H58        -4.7761    3.5517   55.2470 H       1  ZINC000486710336    0.0600
     59 H59        -5.4045    5.0696   54.5542 H       1  ZINC000486710336    0.0600
     60 H60        -6.7053    3.5256   56.8489 H       1  ZINC000486710336    0.0500
     61 H61        -5.6913    4.9785   57.0435 H       1  ZINC000486710336    0.0600
     62 H62        -8.1016    5.5627   57.0206 H       1  ZINC000486710336    0.1000
     63 H63        -7.2491    6.2692   55.6326 H       1  ZINC000486710336    0.0700
@<TRIPOS>BOND
     1     1     2    1
     2     1    35    1
     3     1    36    1
     4     1    37    1
     5     2    11    1
     6     2     3    1
     7     3     4    2
     8     4     5    1
     9     4    10    1
    10     5     9    1
    11     5     6    1
    12     5    38    1
    13     6     7    1
    14     6    39    1
    15     6    40    1
    16     7     8    1
    17     7    41    1
    18     7    42    1
    19     8     9    1
    20     8    43    1
    21     8    44    1
    22     9    45    1
    23     9    46    1
    24    10    11    2
    25    10    47    1
    26    11    12    1
    27    12    13   am
    28    12    48    1
    29    13    14    2
    30    13    15    1
    31    15    16    2
    32    15    17   am
    33    17    33    1
    34    17    18    1
    35    18    19    1
    36    18    49    1
    37    18    50    1
    38    19    20    1
    39    19    21    1
    40    19    27    1
    41    21    26   ar
    42    21    22   ar
    43    22    23   ar
    44    22    51    1
    45    23    24   ar
    46    23    52    1
    47    24    25   ar
    48    24    53    1
    49    25    26   ar
    50    25    54    1
    51    26    55    1
    52    27    28    1
    53    27    33    1
    54    27    29    1
    55    29    30    1
    56    29    56    1
    57    29    57    1
    58    30    31    1
    59    30    58    1
    60    30    59    1
    61    31    32    1
    62    31    60    1
    63    31    61    1
    64    32    33    1
    65    32    62    1
    66    32    63    1
    67    33    34    1
@<TRIPOS>SUBSTRUCTURE
     1 ZINC000486710336        1 TEMP              0 ****  ****    0 ROOT


##########                                Name:    ZINC000797321835
##########                DOCK_Rotatable_Bonds:                   4
##########                         Heavy_Atoms:                  22
##########                    Molecular_Weight:             381.253
##########                DOCK_Rotatable_Bonds:                   4
##########                       Formal_Charge:           0.0200001
##########                     HBond_Acceptors:                   7
##########                        HBond_Donors:                   1
##########                         Heavy_Atoms:                  22
##########                          Grid_Score:          -30.415962
##########                     Grid_vdw_energy:          -30.326988
##########                      Grid_es_energy:           -0.088973
##########           Internal_energy_repulsive:            6.648496

@<TRIPOS>MOLECULE
ZINC000797321835
 35 37 1 0 0
SMALL
USER_CHARGES


@<TRIPOS>ATOM
      1 C1        -14.5470   -4.4676   57.4799 C.3     1  ZINC000797321835    0.1000
      2 N2        -13.6672   -4.3600   56.3135 N.am    1  ZINC000797321835   -0.6000
      3 C3        -14.0958   -4.3381   55.0396 C.2     1  ZINC000797321835    0.5200
      4 O4        -15.2566   -4.4108   54.6959 O.2     1  ZINC000797321835   -0.5200
      5 C5        -12.9195   -4.2090   54.0971 C.3     1  ZINC000797321835   -0.1500
      6 C6        -11.7578   -3.7387   55.0028 C.3     1  ZINC000797321835   -0.1200
      7 C7        -12.2050   -4.2560   56.3860 C.3     1  ZINC000797321835    0.1200
      8 H8        -11.7724   -5.2375   56.5797 H       1  ZINC000797321835    0.1100
      9 C9        -11.7960   -3.2847   57.4632 C.2     1  ZINC000797321835    0.4900
     10 O10       -11.6830   -2.1052   57.2052 O.2     1  ZINC000797321835   -0.4400
     11 N11       -11.5558   -3.7272   58.7135 N.am    1  ZINC000797321835   -0.6500
     12 C12       -11.1773   -2.8283   59.7105 C.ar    1  ZINC000797321835    0.3000
     13 C13        -9.8916   -2.8851   60.2498 C.ar    1  ZINC000797321835   -0.1400
     14 C14        -9.5594   -1.9740   61.2359 C.ar    1  ZINC000797321835   -0.0800
     15 C15       -10.5357   -1.0503   61.6321 C.ar    1  ZINC000797321835    0.1100
     16 C16       -10.2328   -0.0555   62.6806 C.2     1  ZINC000797321835   -0.1400
     17 C17       -10.7353    1.1947   62.7361 C.2     1  ZINC000797321835   -0.0900
     18 C18       -10.3055    1.9416   63.8127 C.2     1  ZINC000797321835   -0.0900
     19 C19        -9.4580    1.3136   64.6353 C.2     1  ZINC000797321835   -0.2000
     20 Br20       -8.6944    2.0668   66.1928 Br      1  ZINC000797321835    0.0200
     21 S21        -9.1668   -0.3205   64.0542 S.3     1  ZINC000797321835    0.1900
     22 N22       -11.7347   -1.0727   61.0601 N.ar    1  ZINC000797321835   -0.1900
     23 N23       -12.0361   -1.9172   60.1418 N.ar    1  ZINC000797321835   -0.2200
     24 H24       -14.8400   -3.4700   57.8073 H       1  ZINC000797321835    0.0700
     25 H25       -15.4366   -5.0381   57.2126 H       1  ZINC000797321835    0.0800
     26 H26       -14.0193   -4.9747   58.2876 H       1  ZINC000797321835    0.0700
     27 H27       -12.6850   -5.1729   53.6455 H       1  ZINC000797321835    0.1100
     28 H28       -13.1275   -3.4663   53.3269 H       1  ZINC000797321835    0.1100
     29 H29       -10.8161   -4.1957   54.6983 H       1  ZINC000797321835    0.1100
     30 H30       -11.6795   -2.6516   55.0039 H       1  ZINC000797321835    0.0900
     31 H31       -11.6462   -4.6706   58.9199 H       1  ZINC000797321835    0.4200
     32 H32        -9.1770   -3.6189   59.9075 H       1  ZINC000797321835    0.1600
     33 H33        -8.5781   -1.9748   61.6869 H       1  ZINC000797321835    0.1500
     34 H34       -11.4202    1.5806   61.9955 H       1  ZINC000797321835    0.1600
     35 H35       -10.6290    2.9584   63.9791 H       1  ZINC000797321835    0.1600
@<TRIPOS>BOND
     1     1     2    1
     2     1    24    1
     3     1    25    1
     4     1    26    1
     5     2     7    1
     6     2     3   am
     7     3     4    2
     8     3     5    1
     9     5     6    1
    10     5    27    1
    11     5    28    1
    12     6     7    1
    13     6    29    1
    14     6    30    1
    15     7     8    1
    16     7     9    1
    17     9    10    2
    18     9    11   am
    19    11    12    1
    20    11    31    1
    21    12    23   ar
    22    12    13   ar
    23    13    14   ar
    24    13    32    1
    25    14    15   ar
    26    14    33    1
    27    15    16    1
    28    15    22   ar
    29    16    21    1
    30    16    17    2
    31    17    18    1
    32    17    34    1
    33    18    19    2
    34    18    35    1
    35    19    20    1
    36    19    21    1
    37    22    23   ar
@<TRIPOS>SUBSTRUCTURE
     1 ZINC000797321835        1 TEMP              0 ****  ****    0 ROOT


##########                                Name:    ZINC000579444893
##########                DOCK_Rotatable_Bonds:                   8
##########                         Heavy_Atoms:                  26
##########                    Molecular_Weight:             365.494
##########                DOCK_Rotatable_Bonds:                   8
##########                       Formal_Charge:         -0.00999993
##########                     HBond_Acceptors:                   7
##########                        HBond_Donors:                   1
##########                         Heavy_Atoms:                  26
##########                          Grid_Score:          -30.412479
##########                     Grid_vdw_energy:          -30.145475
##########                      Grid_es_energy:           -0.267005
##########           Internal_energy_repulsive:           30.808432

@<TRIPOS>MOLECULE
ZINC000579444893
 58 60 1 0 0
SMALL
USER_CHARGES


@<TRIPOS>ATOM
      1 C1        -14.1670   -5.7004   56.9007 C.3     1  ZINC000579444893   -0.1600
      2 C2        -14.9188   -4.3758   56.7548 C.3     1  ZINC000579444893    0.1700
      3 H3        -15.9625   -4.5176   57.0352 H       1  ZINC000579444893    0.0900
      4 N4        -14.3105   -3.3703   57.6294 N.am    1  ZINC000579444893   -0.7400
      5 C5        -14.7178   -3.2549   58.9089 C.2     1  ZINC000579444893    0.7100
      6 O6        -15.5913   -3.9845   59.3370 O.2     1  ZINC000579444893   -0.5900
      7 N7        -14.1570   -2.3309   59.7140 N.am    1  ZINC000579444893   -0.6300
      8 C8        -14.6011   -2.2043   61.1043 C.3     1  ZINC000579444893    0.0800
      9 C9        -13.1034   -1.4530   59.1989 C.3     1  ZINC000579444893    0.1100
     10 C10       -11.7865   -2.2281   59.1210 C.3     1  ZINC000579444893    0.0600
     11 H11       -11.9232   -3.1324   58.5281 H       1  ZINC000579444893    0.1000
     12 C12       -11.3106   -2.5986   60.5415 C.3     1  ZINC000579444893   -0.1600
     13 C13        -9.7727   -2.4135   60.4543 C.3     1  ZINC000579444893    0.0800
     14 H14        -9.2976   -3.2929   60.0195 H       1  ZINC000579444893    0.1000
     15 F15        -9.2308   -2.1241   61.7112 F       1  ZINC000579444893   -0.2000
     16 C16        -9.6577   -1.1944   59.5054 C.3     1  ZINC000579444893    0.0200
     17 N17       -10.7421   -1.3830   58.5134 N.3     1  ZINC000579444893   -0.5000
     18 C18       -11.2940   -0.0910   58.0847 C.3     1  ZINC000579444893    0.1000
     19 C19       -10.1861    0.7723   57.5386 C.2     1  ZINC000579444893    0.0800
     20 C20        -9.2198    0.3794   56.6767 C.2     1  ZINC000579444893   -0.2500
     21 C21        -8.3949    1.4805   56.4239 C.2     1  ZINC000579444893    0.0400
     22 N22        -8.8499    2.4978   57.1095 N.2     1  ZINC000579444893   -0.2900
     23 N23        -9.9833    2.0771   57.8170 N.pl3   1  ZINC000579444893   -0.3700
     24 C24       -10.7990    2.9049   58.7090 C.3     1  ZINC000579444893    0.0900
     25 C25       -14.8408   -3.9024   55.3020 C.3     1  ZINC000579444893   -0.1000
     26 C26       -15.5152   -2.5168   55.1464 C.3     1  ZINC000579444893   -0.1200
     27 C27       -14.8392   -1.9487   53.8739 C.3     1  ZINC000579444893   -0.1300
     28 C28       -13.3730   -2.4153   53.9838 C.3     1  ZINC000579444893   -0.1300
     29 C29       -13.3740   -3.6575   54.8919 C.3     1  ZINC000579444893   -0.1200
     30 H30       -14.1437   -5.9912   57.9509 H       1  ZINC000579444893    0.0600
     31 H31       -14.6744   -6.4718   56.3213 H       1  ZINC000579444893    0.0700
     32 H32       -13.1476   -5.5820   56.5337 H       1  ZINC000579444893    0.0500
     33 H33       -13.6145   -2.7874   57.2876 H       1  ZINC000579444893    0.4000
     34 H34       -14.0653   -2.9235   61.7237 H       1  ZINC000579444893    0.0600
     35 H35       -14.3969   -1.1946   61.4605 H       1  ZINC000579444893    0.0800
     36 H36       -15.6716   -2.4008   61.1630 H       1  ZINC000579444893    0.0700
     37 H37       -13.3774   -1.1014   58.2042 H       1  ZINC000579444893    0.0900
     38 H38       -12.9834   -0.5992   59.8658 H       1  ZINC000579444893    0.0900
     39 H39       -11.7390   -1.9215   61.2803 H       1  ZINC000579444893    0.1100
     40 H40       -11.5616   -3.6334   60.7743 H       1  ZINC000579444893    0.0800
     41 H41        -9.8053   -0.2672   60.0592 H       1  ZINC000579444893    0.0600
     42 H42        -8.6875   -1.1904   59.0088 H       1  ZINC000579444893    0.0900
     43 H43       -12.0427   -0.2548   57.3095 H       1  ZINC000579444893    0.1100
     44 H44       -11.7565    0.4073   58.9368 H       1  ZINC000579444893    0.0500
     45 H45        -9.1052   -0.6096   56.2583 H       1  ZINC000579444893    0.1500
     46 H46        -7.5315    1.4891   55.7754 H       1  ZINC000579444893    0.1800
     47 H47       -11.6288    3.3347   58.1480 H       1  ZINC000579444893    0.0800
     48 H48       -11.1886    2.2900   59.5202 H       1  ZINC000579444893    0.0800
     49 H49       -10.1863    3.7061   59.1224 H       1  ZINC000579444893    0.0900
     50 H50       -15.3057   -4.6319   54.6386 H       1  ZINC000579444893    0.0800
     51 H51       -16.5896   -2.6246   54.9978 H       1  ZINC000579444893    0.0700
     52 H52       -15.3050   -1.8858   56.0099 H       1  ZINC000579444893    0.0700
     53 H53       -15.3045   -2.3608   52.9784 H       1  ZINC000579444893    0.0700
     54 H54       -14.8936   -0.8601   53.8666 H       1  ZINC000579444893    0.0700
     55 H55       -12.9885   -2.6742   52.9973 H       1  ZINC000579444893    0.0600
     56 H56       -12.7631   -1.6287   54.4281 H       1  ZINC000579444893    0.0600
     57 H57       -12.7647   -3.4738   55.7768 H       1  ZINC000579444893    0.0600
     58 H58       -12.9900   -4.5193   54.3460 H       1  ZINC000579444893    0.0600
@<TRIPOS>BOND
     1     1     2    1
     2     1    30    1
     3     1    31    1
     4     1    32    1
     5     2     3    1
     6     2     4    1
     7     2    25    1
     8     4     5   am
     9     4    33    1
    10     5     6    2
    11     5     7   am
    12     7     8    1
    13     7     9    1
    14     8    34    1
    15     8    35    1
    16     8    36    1
    17     9    10    1
    18     9    37    1
    19     9    38    1
    20    10    11    1
    21    10    17    1
    22    10    12    1
    23    12    13    1
    24    12    39    1
    25    12    40    1
    26    13    14    1
    27    13    15    1
    28    13    16    1
    29    16    17    1
    30    16    41    1
    31    16    42    1
    32    17    18    1
    33    18    19    1
    34    18    43    1
    35    18    44    1
    36    19    23    1
    37    19    20    2
    38    20    21    1
    39    20    45    1
    40    21    22    2
    41    21    46    1
    42    22    23    1
    43    23    24    1
    44    24    47    1
    45    24    48    1
    46    24    49    1
    47    25    29    1
    48    25    26    1
    49    25    50    1
    50    26    27    1
    51    26    51    1
    52    26    52    1
    53    27    28    1
    54    27    53    1
    55    27    54    1
    56    28    29    1
    57    28    55    1
    58    28    56    1
    59    29    57    1
    60    29    58    1
@<TRIPOS>SUBSTRUCTURE
     1 ZINC000579444893        1 TEMP              0 ****  ****    0 ROOT


##########                                Name:    ZINC000518242403
##########                DOCK_Rotatable_Bonds:                   6
##########                         Heavy_Atoms:                  27
##########                    Molecular_Weight:             370.405
##########                DOCK_Rotatable_Bonds:                   6
##########                       Formal_Charge:          -0.0200004
##########                     HBond_Acceptors:                   7
##########                        HBond_Donors:                   1
##########                         Heavy_Atoms:                  27
##########                          Grid_Score:          -30.352186
##########                     Grid_vdw_energy:          -30.397383
##########                      Grid_es_energy:            0.045196
##########           Internal_energy_repulsive:           21.547457

@<TRIPOS>MOLECULE
ZINC000518242403
 49 52 1 0 0
SMALL
USER_CHARGES


@<TRIPOS>ATOM
      1 C1        -11.2376   -4.0478   53.2370 C.3     1  ZINC000518242403   -0.1800
      2 C2        -12.5962   -3.3626   53.3971 C.3     1  ZINC000518242403    0.1000
      3 N3        -12.4011   -2.0064   53.9154 N.am    1  ZINC000518242403   -0.6200
      4 C4        -12.4528   -0.8597   53.0051 C.3     1  ZINC000518242403    0.1500
      5 C5        -11.1229   -0.1052   53.0591 C.3     1  ZINC000518242403    0.0300
      6 H6        -10.9454    0.2545   54.0727 H       1  ZINC000518242403    0.0900
      7 C7         -9.9810   -1.0381   52.6338 C.3     1  ZINC000518242403    0.0300
      8 O8         -8.7562   -0.2984   52.6822 O.3     1  ZINC000518242403   -0.3000
      9 C9         -8.7680    0.9415   52.1210 C.ar    1  ZINC000518242403    0.0500
     10 C10        -7.5662    1.5579   51.8069 C.ar    1  ZINC000518242403   -0.1100
     11 C11        -7.5621    2.8185   51.2393 C.ar    1  ZINC000518242403   -0.1200
     12 C12        -8.7551    3.4676   50.9833 C.ar    1  ZINC000518242403   -0.1200
     13 C13        -9.9567    2.8580   51.2925 C.ar    1  ZINC000518242403   -0.1100
     14 C14        -9.9681    1.5932   51.8609 C.ar    1  ZINC000518242403    0.0500
     15 O15       -11.1592    1.0028   52.1531 O.3     1  ZINC000518242403   -0.3000
     16 C16       -12.1740   -1.8136   55.2298 C.2     1  ZINC000518242403    0.7100
     17 O17       -12.0135   -0.6877   55.6604 O.2     1  ZINC000518242403   -0.5700
     18 N18       -12.1247   -2.8685   56.0671 N.am    1  ZINC000518242403   -0.6800
     19 C19       -11.8886   -2.6680   57.4338 C.ar    1  ZINC000518242403    0.1700
     20 C20       -10.6466   -2.2241   57.8657 C.ar    1  ZINC000518242403   -0.1000
     21 C21       -10.4139   -2.0257   59.2165 C.ar    1  ZINC000518242403    0.0500
     22 C22       -11.4277   -2.2724   60.1391 C.ar    1  ZINC000518242403    0.0200
     23 C23       -12.6658   -2.7162   59.7039 C.ar    1  ZINC000518242403   -0.0800
     24 C24       -12.8989   -2.9081   58.3554 C.ar    1  ZINC000518242403   -0.1000
     25 C25       -14.2470   -3.3910   57.8857 C.3     1  ZINC000518242403   -0.1100
     26 O26       -10.9524   -2.0037   61.3913 O.3     1  ZINC000518242403   -0.3100
     27 C27        -9.5185   -1.9832   61.2618 C.3     1  ZINC000518242403    0.2100
     28 O28        -9.3044   -1.6025   59.8899 O.3     1  ZINC000518242403   -0.3100
     29 H29       -10.6229   -3.4775   52.5405 H       1  ZINC000518242403    0.0600
     30 H30       -10.7393   -4.0971   54.2051 H       1  ZINC000518242403    0.0600
     31 H31       -11.3828   -5.0569   52.8513 H       1  ZINC000518242403    0.0700
     32 H32       -13.0945   -3.3133   52.4288 H       1  ZINC000518242403    0.1000
     33 H33       -13.2110   -3.9328   54.0934 H       1  ZINC000518242403    0.0700
     34 H34       -12.6305   -1.2105   51.9885 H       1  ZINC000518242403    0.1100
     35 H35       -13.2612   -0.1932   53.3060 H       1  ZINC000518242403    0.0900
     36 H36        -9.9256   -1.8862   53.3163 H       1  ZINC000518242403    0.1300
     37 H37       -10.1558   -1.3936   51.6183 H       1  ZINC000518242403    0.0800
     38 H38        -6.6327    1.0529   52.0061 H       1  ZINC000518242403    0.1300
     39 H39        -6.6250    3.2967   50.9953 H       1  ZINC000518242403    0.1300
     40 H40        -8.7486    4.4527   50.5411 H       1  ZINC000518242403    0.1300
     41 H41       -10.8876    3.3673   51.0915 H       1  ZINC000518242403    0.1300
     42 H42       -12.2527   -3.7666   55.7237 H       1  ZINC000518242403    0.4100
     43 H43        -9.8617   -2.0336   57.1487 H       1  ZINC000518242403    0.1500
     44 H44       -13.4520   -2.9075   60.4192 H       1  ZINC000518242403    0.1400
     45 H45       -14.8915   -2.5342   57.6892 H       1  ZINC000518242403    0.0800
     46 H46       -14.1264   -3.9722   56.9715 H       1  ZINC000518242403    0.0700
     47 H47       -14.6979   -4.0157   58.6566 H       1  ZINC000518242403    0.0800
     48 H48        -9.0836   -1.2457   61.9363 H       1  ZINC000518242403    0.1300
     49 H49        -9.1025   -2.9721   61.4543 H       1  ZINC000518242403    0.0900
@<TRIPOS>BOND
     1     1     2    1
     2     1    29    1
     3     1    30    1
     4     1    31    1
     5     2     3    1
     6     2    32    1
     7     2    33    1
     8     3     4    1
     9     3    16   am
    10     4     5    1
    11     4    34    1
    12     4    35    1
    13     5     6    1
    14     5    15    1
    15     5     7    1
    16     7     8    1
    17     7    36    1
    18     7    37    1
    19     8     9    1
    20     9    14   ar
    21     9    10   ar
    22    10    11   ar
    23    10    38    1
    24    11    12   ar
    25    11    39    1
    26    12    13   ar
    27    12    40    1
    28    13    14   ar
    29    13    41    1
    30    14    15    1
    31    16    17    2
    32    16    18   am
    33    18    19    1
    34    18    42    1
    35    19    24   ar
    36    19    20   ar
    37    20    21   ar
    38    20    43    1
    39    21    28    1
    40    21    22   ar
    41    22    23   ar
    42    22    26    1
    43    23    24   ar
    44    23    44    1
    45    24    25    1
    46    25    45    1
    47    25    46    1
    48    25    47    1
    49    26    27    1
    50    27    28    1
    51    27    48    1
    52    27    49    1
@<TRIPOS>SUBSTRUCTURE
     1 ZINC000518242403        1 TEMP              0 ****  ****    0 ROOT


##########                                Name:    ZINC000836820897
##########                DOCK_Rotatable_Bonds:                   5
##########                         Heavy_Atoms:                  22
##########                    Molecular_Weight:             330.355
##########                DOCK_Rotatable_Bonds:                   5
##########                       Formal_Charge:          -0.0200003
##########                     HBond_Acceptors:                   8
##########                        HBond_Donors:                   1
##########                         Heavy_Atoms:                  22
##########                          Grid_Score:          -30.345251
##########                     Grid_vdw_energy:          -30.101593
##########                      Grid_es_energy:           -0.243659
##########           Internal_energy_repulsive:           11.189184

@<TRIPOS>MOLECULE
ZINC000836820897
 38 40 1 0 0
SMALL
USER_CHARGES


@<TRIPOS>ATOM
      1 O1        -10.6483   -5.4074   58.0847 O.2     1  ZINC000836820897   -0.5200
      2 C2        -11.2421   -4.3466   58.0816 C.2     1  ZINC000836820897    0.5800
      3 C3        -12.2729   -4.0800   57.0575 C.ar    1  ZINC000836820897   -0.1600
      4 C4        -13.6077   -3.9163   57.4331 C.ar    1  ZINC000836820897   -0.0100
      5 C5        -14.5655   -3.6672   56.4733 C.ar    1  ZINC000836820897   -0.1700
      6 C6        -14.2055   -3.5794   55.1375 C.ar    1  ZINC000836820897    0.2200
      7 F7        -15.1481   -3.3351   54.2010 F       1  ZINC000836820897   -0.1100
      8 C8        -12.8811   -3.7407   54.7591 C.ar    1  ZINC000836820897   -0.7200
      9 S9        -12.4321   -3.6263   53.0591 S.o2    1  ZINC000836820897    2.7000
     10 O10       -11.9373   -4.9055   52.6878 O.2     1  ZINC000836820897   -0.9400
     11 O11       -13.5185   -2.9916   52.3989 O.2     1  ZINC000836820897   -0.9400
     12 N12       -11.1503   -2.5824   52.9599 N.am    1  ZINC000836820897   -1.0800
     13 C13       -11.2955   -1.1985   53.4180 C.3     1  ZINC000836820897    0.0700
     14 C14       -10.6826   -0.0986   52.5487 C.3     1  ZINC000836820897   -0.1800
     15 C15       -12.2014   -0.2753   52.6008 C.3     1  ZINC000836820897   -0.1900
     16 C16       -11.9148   -3.9852   55.7109 C.ar    1  ZINC000836820897    0.0600
     17 N17       -10.9639   -3.4159   59.0159 N.am    1  ZINC000836820897   -0.6200
     18 C18        -9.9624   -3.5468   60.0843 C.3     1  ZINC000836820897    0.0900
     19 C19        -9.9764   -2.2302   60.8893 C.3     1  ZINC000836820897   -0.1600
     20 C20       -10.5836   -1.2153   59.8851 C.3     1  ZINC000836820897    0.0800
     21 H21        -9.8223   -0.8377   59.2026 H       1  ZINC000836820897    0.1100
     22 F22       -11.2176   -0.1641   60.5561 F       1  ZINC000836820897   -0.1900
     23 C23       -11.6090   -2.0954   59.1320 C.3     1  ZINC000836820897    0.0800
     24 H24       -13.8893   -3.9849   58.4734 H       1  ZINC000836820897    0.1500
     25 H25       -15.5984   -3.5408   56.7627 H       1  ZINC000836820897    0.1600
     26 H26       -10.3034   -2.8873   52.5984 H       1  ZINC000836820897    0.4200
     27 H27       -11.2754   -1.0564   54.4984 H       1  ZINC000836820897    0.1400
     28 H28       -10.2589    0.7673   53.0574 H       1  ZINC000836820897    0.1100
     29 H29       -10.1713   -0.4048   51.6361 H       1  ZINC000836820897    0.1000
     30 H30       -12.6895   -0.6975   51.7224 H       1  ZINC000836820897    0.1000
     31 H31       -12.7771    0.4745   53.1437 H       1  ZINC000836820897    0.1000
     32 H32       -10.8836   -4.1105   55.4151 H       1  ZINC000836820897    0.1600
     33 H33       -10.2216   -4.3820   60.7350 H       1  ZINC000836820897    0.0800
     34 H34        -8.9753   -3.7052   59.6497 H       1  ZINC000836820897    0.0800
     35 H35       -10.6087   -2.3247   61.7720 H       1  ZINC000836820897    0.0900
     36 H36        -8.9640   -1.9380   61.1682 H       1  ZINC000836820897    0.1000
     37 H37       -11.8123   -1.6806   58.1447 H       1  ZINC000836820897    0.1000
     38 H38       -12.5315   -2.1790   59.7065 H       1  ZINC000836820897    0.0900
@<TRIPOS>BOND
     1     1     2    2
     2     2     3    1
     3     2    17   am
     4     3    16   ar
     5     3     4   ar
     6     4     5   ar
     7     4    24    1
     8     5     6   ar
     9     5    25    1
    10     6     7    1
    11     6     8   ar
    12     8     9    1
    13     8    16   ar
    14     9    10    2
    15     9    11    2
    16     9    12   am
    17    12    13    1
    18    12    26    1
    19    13    15    1
    20    13    14    1
    21    13    27    1
    22    14    15    1
    23    14    28    1
    24    14    29    1
    25    15    30    1
    26    15    31    1
    27    16    32    1
    28    17    23    1
    29    17    18    1
    30    18    19    1
    31    18    33    1
    32    18    34    1
    33    19    20    1
    34    19    35    1
    35    19    36    1
    36    20    21    1
    37    20    22    1
    38    20    23    1
    39    23    37    1
    40    23    38    1
@<TRIPOS>SUBSTRUCTURE
     1 ZINC000836820897        1 TEMP              0 ****  ****    0 ROOT


##########                                Name:    ZINC000866717058
##########                DOCK_Rotatable_Bonds:                   7
##########                         Heavy_Atoms:                  25
##########                    Molecular_Weight:             380.388
##########                DOCK_Rotatable_Bonds:                   7
##########                       Formal_Charge:                0.04
##########                     HBond_Acceptors:                  10
##########                        HBond_Donors:                   1
##########                         Heavy_Atoms:                  25
##########                          Grid_Score:          -30.308357
##########                     Grid_vdw_energy:          -29.135820
##########                      Grid_es_energy:           -1.172537
##########           Internal_energy_repulsive:           11.218778

@<TRIPOS>MOLECULE
ZINC000866717058
 44 45 1 0 0
SMALL
USER_CHARGES


@<TRIPOS>ATOM
      1 C1        -13.2554   -1.4937   59.5655 C.3     1  ZINC000866717058   -0.1100
      2 C2        -11.9280   -1.4629   60.2782 C.ar    1  ZINC000866717058    0.2400
      3 N3        -11.8542   -0.9735   61.4980 N.ar    1  ZINC000866717058   -0.5500
      4 C4        -10.7097   -0.9261   62.1629 C.ar    1  ZINC000866717058    0.3500
      5 O5        -10.6867   -0.4132   63.4168 O.3     1  ZINC000866717058   -0.2800
      6 C6        -10.1852    0.9168   63.5645 C.3     1  ZINC000866717058    0.0500
      7 H7         -9.2397    1.0101   63.0302 H       1  ZINC000866717058    0.1300
      8 C8        -11.1966    1.9100   62.9887 C.3     1  ZINC000866717058   -0.1700
      9 C9         -9.9642    1.2166   65.0484 C.3     1  ZINC000866717058    0.4600
     10 F10        -9.1558    0.2223   65.6097 F       1  ZINC000866717058   -0.1700
     11 F11        -9.3369    2.4596   65.1847 F       1  ZINC000866717058   -0.1700
     12 F12       -11.1978    1.2420   65.7079 F       1  ZINC000866717058   -0.1700
     13 C13        -9.5309   -1.3959   61.5925 C.ar    1  ZINC000866717058   -0.1900
     14 C14        -9.5606   -1.9176   60.3154 C.ar    1  ZINC000866717058    0.0000
     15 C15       -10.7896   -1.9585   59.6409 C.ar    1  ZINC000866717058   -0.2300
     16 C16       -10.8757   -2.5072   58.2733 C.2     1  ZINC000866717058    0.5800
     17 O17       -10.3298   -1.9316   57.3518 O.2     1  ZINC000866717058   -0.5200
     18 N18       -11.5596   -3.6462   58.0458 N.am    1  ZINC000866717058   -0.7400
     19 C19       -11.6464   -4.1897   56.6882 C.3     1  ZINC000866717058    0.1400
     20 C20       -12.8526   -3.5801   55.9711 C.3     1  ZINC000866717058   -0.5700
     21 H21       -12.8150   -2.4914   56.0109 H       1  ZINC000866717058    0.1500
     22 C22       -12.9280   -4.0746   54.5034 C.3     1  ZINC000866717058   -0.1100
     23 C23       -14.3718   -3.8304   54.0303 C.3     1  ZINC000866717058   -0.1200
     24 C24       -15.3408   -4.3504   55.1107 C.3     1  ZINC000866717058   -0.5900
     25 S25       -14.4196   -4.2035   56.6887 S.o2    1  ZINC000866717058    2.3700
     26 O26       -14.2031   -5.4994   57.2300 O.2     1  ZINC000866717058   -0.9200
     27 O27       -15.0141   -3.1904   57.4884 O.2     1  ZINC000866717058   -0.9300
     28 H28       -13.7082   -2.4782   59.6832 H       1  ZINC000866717058    0.0900
     29 H29       -13.9143   -0.7374   59.9919 H       1  ZINC000866717058    0.0700
     30 H30       -13.1037   -1.2880   58.5058 H       1  ZINC000866717058    0.1100
     31 H31       -10.8141    2.9245   63.1014 H       1  ZINC000866717058    0.0900
     32 H32       -11.3541    1.6965   61.9316 H       1  ZINC000866717058    0.0900
     33 H33       -12.1420    1.8168   63.5230 H       1  ZINC000866717058    0.0800
     34 H34        -8.6028   -1.3524   62.1430 H       1  ZINC000866717058    0.1600
     35 H35        -8.6604   -2.2890   59.8482 H       1  ZINC000866717058    0.1500
     36 H36       -11.9941   -4.1060   58.7811 H       1  ZINC000866717058    0.4000
     37 H37       -10.7364   -3.9456   56.1402 H       1  ZINC000866717058    0.1000
     38 H38       -11.7618   -5.2724   56.7369 H       1  ZINC000866717058    0.1000
     39 H39       -12.2315   -3.5106   53.8832 H       1  ZINC000866717058    0.1100
     40 H40       -12.6944   -5.1381   54.4554 H       1  ZINC000866717058    0.0900
     41 H41       -14.5318   -2.7631   53.8776 H       1  ZINC000866717058    0.0900
     42 H42       -14.5459   -4.3625   53.0951 H       1  ZINC000866717058    0.1000
     43 H43       -16.2396   -3.7345   55.1412 H       1  ZINC000866717058    0.1400
     44 H44       -15.6005   -5.3911   54.9169 H       1  ZINC000866717058    0.1400
@<TRIPOS>BOND
     1     1     2    1
     2     1    28    1
     3     1    29    1
     4     1    30    1
     5     2    15   ar
     6     2     3   ar
     7     3     4   ar
     8     4     5    1
     9     4    13   ar
    10     5     6    1
    11     6     7    1
    12     6     8    1
    13     6     9    1
    14     8    31    1
    15     8    32    1
    16     8    33    1
    17     9    10    1
    18     9    11    1
    19     9    12    1
    20    13    14   ar
    21    13    34    1
    22    14    15   ar
    23    14    35    1
    24    15    16    1
    25    16    17    2
    26    16    18   am
    27    18    19    1
    28    18    36    1
    29    19    20    1
    30    19    37    1
    31    19    38    1
    32    20    21    1
    33    20    25    1
    34    20    22    1
    35    22    23    1
    36    22    39    1
    37    22    40    1
    38    23    24    1
    39    23    41    1
    40    23    42    1
    41    24    25    1
    42    24    43    1
    43    24    44    1
    44    25    26    2
    45    25    27    2
@<TRIPOS>SUBSTRUCTURE
     1 ZINC000866717058        1 TEMP              0 ****  ****    0 ROOT


##########                                Name:    ZINC000516003207
##########                DOCK_Rotatable_Bonds:                   5
##########                         Heavy_Atoms:                  24
##########                    Molecular_Weight:             342.462
##########                DOCK_Rotatable_Bonds:                   5
##########                       Formal_Charge:          -0.0200001
##########                     HBond_Acceptors:                   5
##########                        HBond_Donors:                   1
##########                         Heavy_Atoms:                  24
##########                          Grid_Score:          -30.293043
##########                     Grid_vdw_energy:          -29.199242
##########                      Grid_es_energy:           -1.093802
##########           Internal_energy_repulsive:            9.094584

@<TRIPOS>MOLECULE
ZINC000516003207
 46 49 1 0 0
SMALL
USER_CHARGES


@<TRIPOS>ATOM
      1 C1        -10.0322    0.5641   63.9312 C.3     1  ZINC000516003207    0.0300
      2 O2        -10.7937   -0.2724   63.0579 O.3     1  ZINC000516003207   -0.3600
      3 C3        -10.2838   -0.3375   61.7246 C.3     1  ZINC000516003207    0.0900
      4 H4         -9.4004    0.2840   61.5777 H       1  ZINC000516003207    0.0800
      5 C5        -10.1241   -1.7737   61.1936 C.3     1  ZINC000516003207   -0.1700
      6 C6        -11.5691   -1.6643   60.6738 C.3     1  ZINC000516003207    0.1500
      7 H7        -12.3192   -1.9875   61.3954 H       1  ZINC000516003207    0.1200
      8 N8        -11.7630   -2.2548   59.3471 N.am    1  ZINC000516003207   -0.7200
      9 C9        -12.8652   -2.9866   59.0900 C.2     1  ZINC000516003207    0.5600
     10 O10       -13.6990   -3.1553   59.9581 O.2     1  ZINC000516003207   -0.5300
     11 C11       -13.0602   -3.5842   57.7515 C.ar    1  ZINC000516003207   -0.1400
     12 C12       -13.8726   -4.7094   57.5990 C.ar    1  ZINC000516003207   -0.0800
     13 C13       -14.0545   -5.2679   56.3495 C.ar    1  ZINC000516003207   -0.1200
     14 C14       -13.4356   -4.7180   55.2442 C.ar    1  ZINC000516003207   -0.0800
     15 C15       -12.6219   -3.5937   55.3832 C.ar    1  ZINC000516003207   -0.0300
     16 C16       -11.9582   -3.0052   54.1941 C.2     1  ZINC000516003207    0.1100
     17 C17       -11.9861   -3.5840   52.9767 C.2     1  ZINC000516003207   -0.2600
     18 S18       -11.0815   -2.5562   51.8682 S.3     1  ZINC000516003207    0.1400
     19 C19       -10.7546   -1.4559   53.1346 C.2     1  ZINC000516003207    0.0600
     20 C20        -9.9562   -0.1865   52.9851 C.3     1  ZINC000516003207   -0.0800
     21 N21       -11.2905   -1.8611   54.2335 N.2     1  ZINC000516003207   -0.4700
     22 C22       -12.4380   -3.0221   56.6379 C.ar    1  ZINC000516003207   -0.0300
     23 C23       -11.3534   -0.1477   60.6485 C.3     1  ZINC000516003207   -0.1100
     24 C24       -12.5194    0.8203   60.8527 C.3     1  ZINC000516003207   -0.1200
     25 C25       -11.7420    1.8079   59.9637 C.3     1  ZINC000516003207   -0.1400
     26 C26       -11.0423    0.5851   59.3430 C.3     1  ZINC000516003207   -0.1200
     27 H27       -10.0210    1.5819   63.5411 H       1  ZINC000516003207    0.0400
     28 H28       -10.4838    0.5602   64.9233 H       1  ZINC000516003207    0.0900
     29 H29        -9.0110    0.1883   63.9953 H       1  ZINC000516003207    0.0400
     30 H30        -9.3814   -1.8655   60.4010 H       1  ZINC000516003207    0.0900
     31 H31        -9.9988   -2.5179   61.9800 H       1  ZINC000516003207    0.0800
     32 H32       -11.0982   -2.1191   58.6539 H       1  ZINC000516003207    0.4000
     33 H33       -14.3592   -5.1438   58.4598 H       1  ZINC000516003207    0.1300
     34 H34       -14.6832   -6.1388   56.2362 H       1  ZINC000516003207    0.1400
     35 H35       -13.5816   -5.1599   54.2696 H       1  ZINC000516003207    0.1300
     36 H36       -12.4759   -4.5133   52.7259 H       1  ZINC000516003207    0.1800
     37 H37        -9.6249   -0.0853   51.9516 H       1  ZINC000516003207    0.0800
     38 H38       -10.5783    0.6676   53.2525 H       1  ZINC000516003207    0.0900
     39 H39        -9.0879   -0.2237   53.6431 H       1  ZINC000516003207    0.0900
     40 H40       -11.8088   -2.1515   56.7503 H       1  ZINC000516003207    0.1500
     41 H41       -13.4551    0.4774   60.4111 H       1  ZINC000516003207    0.0800
     42 H42       -12.6339    1.1561   61.8834 H       1  ZINC000516003207    0.0800
     43 H43       -12.3731    2.3522   59.2614 H       1  ZINC000516003207    0.0700
     44 H44       -11.0686    2.4592   60.5210 H       1  ZINC000516003207    0.0800
     45 H45        -9.9768    0.7330   59.1676 H       1  ZINC000516003207    0.0700
     46 H46       -11.5628    0.1761   58.4770 H       1  ZINC000516003207    0.0900
@<TRIPOS>BOND
     1     1     2    1
     2     1    27    1
     3     1    28    1
     4     1    29    1
     5     2     3    1
     6     3     4    1
     7     3    23    1
     8     3     5    1
     9     5     6    1
    10     5    30    1
    11     5    31    1
    12     6     7    1
    13     6     8    1
    14     6    23    1
    15     8     9   am
    16     8    32    1
    17     9    10    2
    18     9    11    1
    19    11    22   ar
    20    11    12   ar
    21    12    13   ar
    22    12    33    1
    23    13    14   ar
    24    13    34    1
    25    14    15   ar
    26    14    35    1
    27    15    16    1
    28    15    22   ar
    29    16    21    1
    30    16    17    2
    31    17    18    1
    32    17    36    1
    33    18    19    1
    34    19    20    1
    35    19    21    2
    36    20    37    1
    37    20    38    1
    38    20    39    1
    39    22    40    1
    40    23    26    1
    41    23    24    1
    42    24    25    1
    43    24    41    1
    44    24    42    1
    45    25    26    1
    46    25    43    1
    47    25    44    1
    48    26    45    1
    49    26    46    1
@<TRIPOS>SUBSTRUCTURE
     1 ZINC000516003207        1 TEMP              0 ****  ****    0 ROOT


##########                                Name:    ZINC000430767928
##########                DOCK_Rotatable_Bonds:                   4
##########                         Heavy_Atoms:                  25
##########                    Molecular_Weight:             358.505
##########                DOCK_Rotatable_Bonds:                   4
##########                       Formal_Charge:          -0.0100002
##########                     HBond_Acceptors:                   5
##########                        HBond_Donors:                   0
##########                         Heavy_Atoms:                  25
##########                          Grid_Score:          -30.284927
##########                     Grid_vdw_energy:          -30.090973
##########                      Grid_es_energy:           -0.193954
##########           Internal_energy_repulsive:           25.466269

@<TRIPOS>MOLECULE
ZINC000430767928
 51 55 1 0 0
SMALL
USER_CHARGES


@<TRIPOS>ATOM
      1 O1        -13.6859   -0.5147   53.9193 O.2     1  ZINC000430767928   -0.4600
      2 C2        -13.1505   -1.5940   54.0548 C.2     1  ZINC000430767928    0.5300
      3 C3        -13.2676   -2.5336   55.2306 C.3     1  ZINC000430767928    0.0400
      4 H4        -14.2441   -3.0142   55.2921 H       1  ZINC000430767928    0.1400
      5 C5        -12.8549   -1.8464   56.5486 C.3     1  ZINC000430767928   -0.1100
      6 C6        -12.2576   -3.0222   57.3631 C.3     1  ZINC000430767928   -0.1000
      7 H7        -13.0054   -3.4313   58.0425 H       1  ZINC000430767928    0.1000
      8 C8        -11.0274   -2.5571   58.1450 C.3     1  ZINC000430767928   -0.0800
      9 C9        -11.3980   -1.3491   59.0078 C.3     1  ZINC000430767928   -0.1100
     10 C10       -10.1677   -0.8842   59.7896 C.3     1  ZINC000430767928   -0.1200
     11 C11        -9.6749   -2.0204   60.6879 C.3     1  ZINC000430767928   -0.1200
     12 C12        -9.3043   -3.2284   59.8251 C.3     1  ZINC000430767928   -0.1200
     13 C13       -10.5346   -3.6934   59.0433 C.3     1  ZINC000430767928   -0.1200
     14 C14       -11.8589   -4.0748   56.3062 C.3     1  ZINC000430767928    0.1600
     15 N15       -12.1554   -3.4943   54.9858 N.am    1  ZINC000430767928   -0.6400
     16 C16       -11.8643   -3.3816   53.6860 C.2     1  ZINC000430767928    0.7400
     17 O17       -11.2487   -4.2135   53.0486 O.2     1  ZINC000430767928   -0.5100
     18 N18       -12.3257   -2.2156   53.1830 N.am    1  ZINC000430767928   -0.5800
     19 C19       -11.9715   -1.6870   51.8634 C.3     1  ZINC000430767928    0.2600
     20 H20       -11.5529   -2.4866   51.2522 H       1  ZINC000430767928    0.1200
     21 C21       -13.2050   -1.1370   51.1950 C.2     1  ZINC000430767928   -0.2100
     22 C22       -13.5466    0.1517   51.1523 C.2     1  ZINC000430767928   -0.1200
     23 C23       -14.7265    0.4204   50.4800 C.2     1  ZINC000430767928   -0.1400
     24 C24       -15.3429   -0.6502   49.9769 C.2     1  ZINC000430767928   -0.2300
     25 S25       -14.4106   -2.0953   50.3453 S.3     1  ZINC000430767928    0.1700
     26 C26       -10.9368   -0.5712   52.0220 C.3     1  ZINC000430767928   -0.1700
     27 C27       -10.3037   -0.3859   53.4026 C.3     1  ZINC000430767928   -0.1700
     28 C28        -9.4827   -0.9846   52.2586 C.3     1  ZINC000430767928   -0.1600
     29 H29       -12.1023   -1.0793   56.3665 H       1  ZINC000430767928    0.0800
     30 H30       -13.7238   -1.4259   57.0550 H       1  ZINC000430767928    0.1000
     31 H31       -10.2380   -2.2771   57.4474 H       1  ZINC000430767928    0.0700
     32 H32       -11.7491   -0.5397   58.3677 H       1  ZINC000430767928    0.0600
     33 H33       -12.1873   -1.6293   59.7053 H       1  ZINC000430767928    0.0700
     34 H34        -9.3784   -0.6040   59.0919 H       1  ZINC000430767928    0.0600
     35 H35       -10.4318   -0.0236   60.4041 H       1  ZINC000430767928    0.0600
     36 H36        -8.7985   -1.6892   61.2448 H       1  ZINC000430767928    0.0600
     37 H37       -10.4642   -2.3006   61.3854 H       1  ZINC000430767928    0.0600
     38 H38        -8.5150   -2.9484   59.1275 H       1  ZINC000430767928    0.0600
     39 H39        -8.9532   -4.0380   60.4650 H       1  ZINC000430767928    0.0600
     40 H40       -11.3239   -3.9736   59.7408 H       1  ZINC000430767928    0.0700
     41 H41       -10.2705   -4.5540   58.4287 H       1  ZINC000430767928    0.0600
     42 H42       -10.7964   -4.3035   56.3895 H       1  ZINC000430767928    0.0900
     43 H43       -12.4481   -4.9817   56.4420 H       1  ZINC000430767928    0.0800
     44 H44       -12.9482    0.9267   51.6079 H       1  ZINC000430767928    0.1400
     45 H45       -15.1183    1.4209   50.3715 H       1  ZINC000430767928    0.1400
     46 H46       -16.2709   -0.6319   49.4246 H       1  ZINC000430767928    0.1600
     47 H47       -11.1149    0.3235   51.4255 H       1  ZINC000430767928    0.1200
     48 H48       -10.0653    0.6309   53.7146 H       1  ZINC000430767928    0.1000
     49 H49       -10.6243   -1.0589   54.1977 H       1  ZINC000430767928    0.1000
     50 H50        -9.2633   -2.0514   52.3012 H       1  ZINC000430767928    0.1000
     51 H51        -8.7043   -0.3615   51.8181 H       1  ZINC000430767928    0.1000
@<TRIPOS>BOND
     1     1     2    2
     2     2    18   am
     3     2     3    1
     4     3     4    1
     5     3    15    1
     6     3     5    1
     7     5     6    1
     8     5    29    1
     9     5    30    1
    10     6     7    1
    11     6     8    1
    12     6    14    1
    13     8    13    1
    14     8     9    1
    15     8    31    1
    16     9    10    1
    17     9    32    1
    18     9    33    1
    19    10    11    1
    20    10    34    1
    21    10    35    1
    22    11    12    1
    23    11    36    1
    24    11    37    1
    25    12    13    1
    26    12    38    1
    27    12    39    1
    28    13    40    1
    29    13    41    1
    30    14    15    1
    31    14    42    1
    32    14    43    1
    33    15    16   am
    34    16    17    2
    35    16    18   am
    36    18    19    1
    37    19    20    1
    38    19    21    1
    39    19    26    1
    40    21    25    1
    41    21    22    2
    42    22    23    1
    43    22    44    1
    44    23    24    2
    45    23    45    1
    46    24    25    1
    47    24    46    1
    48    26    28    1
    49    26    27    1
    50    26    47    1
    51    27    28    1
    52    27    48    1
    53    27    49    1
    54    28    50    1
    55    28    51    1
@<TRIPOS>SUBSTRUCTURE
     1 ZINC000430767928        1 TEMP              0 ****  ****    0 ROOT


##########                                Name:    ZINC000676564986
##########                DOCK_Rotatable_Bonds:                   5
##########                         Heavy_Atoms:                  25
##########                    Molecular_Weight:             347.444
##########                DOCK_Rotatable_Bonds:                   5
##########                       Formal_Charge:          -0.0100005
##########                     HBond_Acceptors:                   6
##########                        HBond_Donors:                   1
##########                         Heavy_Atoms:                  25
##########                          Grid_Score:          -30.237753
##########                     Grid_vdw_energy:          -29.541706
##########                      Grid_es_energy:           -0.696046
##########           Internal_energy_repulsive:            4.429739

@<TRIPOS>MOLECULE
ZINC000676564986
 42 45 1 0 0
SMALL
USER_CHARGES


@<TRIPOS>ATOM
      1 C1        -10.1527   -0.7370   62.8366 C.3     1  ZINC000676564986    0.0800
      2 N2        -10.9417   -1.3319   61.7550 N.pl3   1  ZINC000676564986   -0.4800
      3 C3        -12.2569   -1.0910   61.4894 C.2     1  ZINC000676564986    0.2500
      4 N4        -12.6369   -1.7872   60.4576 N.2     1  ZINC000676564986   -0.4600
      5 C5        -11.5927   -2.5171   59.9968 C.ar    1  ZINC000676564986   -0.1100
      6 C6        -11.4123   -3.4265   58.9411 C.ar    1  ZINC000676564986    0.5100
      7 N7        -12.4591   -3.7442   58.0936 N.pl3   1  ZINC000676564986   -0.6900
      8 C8        -12.2847   -4.7769   57.0692 C.3     1  ZINC000676564986    0.1700
      9 C9        -12.9614   -4.3402   55.7954 C.ar    1  ZINC000676564986   -0.0800
     10 C10       -14.2137   -4.8326   55.4757 C.ar    1  ZINC000676564986   -0.1100
     11 C11       -14.8367   -4.4347   54.3095 C.ar    1  ZINC000676564986   -0.0700
     12 C12       -14.2039   -3.5385   53.4564 C.ar    1  ZINC000676564986   -0.1300
     13 S13       -14.9953   -3.0276   51.9674 S.3     1  ZINC000676564986   -0.0100
     14 C14       -14.5759   -1.3195   51.8615 C.ar    1  ZINC000676564986   -0.1000
     15 C15       -14.8147   -0.4756   52.9396 C.ar    1  ZINC000676564986   -0.1200
     16 C16       -14.4842    0.8623   52.8532 C.ar    1  ZINC000676564986   -0.1000
     17 C17       -13.9163    1.3628   51.6958 C.ar    1  ZINC000676564986   -0.1200
     18 C18       -13.6773    0.5259   50.6209 C.ar    1  ZINC000676564986   -0.1000
     19 C19       -14.0003   -0.8142   50.7021 C.ar    1  ZINC000676564986   -0.1000
     20 C20       -12.9455   -3.0460   53.7809 C.ar    1  ZINC000676564986   -0.0700
     21 C21       -12.3309   -3.4439   54.9516 C.ar    1  ZINC000676564986   -0.1100
     22 N22       -10.2127   -3.9742   58.7751 N.ar    1  ZINC000676564986   -0.5900
     23 C23        -9.2080   -3.6767   59.5785 C.ar    1  ZINC000676564986    0.3600
     24 N24        -9.3307   -2.8311   60.5802 N.ar    1  ZINC000676564986   -0.5600
     25 C25       -10.4909   -2.2293   60.8202 C.ar    1  ZINC000676564986    0.3000
     26 H26        -9.6942    0.1876   62.4858 H       1  ZINC000676564986    0.0800
     27 H27       -10.8029   -0.5211   63.6844 H       1  ZINC000676564986    0.0900
     28 H28        -9.3738   -1.4347   63.1443 H       1  ZINC000676564986    0.0900
     29 H29       -12.8903   -0.4215   62.0525 H       1  ZINC000676564986    0.2200
     30 H30       -13.3084   -3.2832   58.1777 H       1  ZINC000676564986    0.4200
     31 H31       -11.2214   -4.9276   56.8826 H       1  ZINC000676564986    0.0800
     32 H32       -12.7287   -5.7104   57.4149 H       1  ZINC000676564986    0.0800
     33 H33       -14.7048   -5.5292   56.1390 H       1  ZINC000676564986    0.1300
     34 H34       -15.8145   -4.8198   54.0603 H       1  ZINC000676564986    0.1400
     35 H35       -15.2585   -0.8656   53.8436 H       1  ZINC000676564986    0.1200
     36 H36       -14.6698    1.5187   53.6905 H       1  ZINC000676564986    0.1300
     37 H37       -13.6592    2.4097   51.6310 H       1  ZINC000676564986    0.1300
     38 H38       -13.2336    0.9201   49.7187 H       1  ZINC000676564986    0.1300
     39 H39       -13.8130   -1.4672   49.8625 H       1  ZINC000676564986    0.1300
     40 H40       -12.4508   -2.3494   53.1202 H       1  ZINC000676564986    0.1300
     41 H41       -11.3531   -3.0615   55.2043 H       1  ZINC000676564986    0.1300
     42 H42        -8.2498   -4.1448   59.4080 H       1  ZINC000676564986    0.2000
@<TRIPOS>BOND
     1     1     2    1
     2     1    26    1
     3     1    27    1
     4     1    28    1
     5     2    25    1
     6     2     3    1
     7     3     4    2
     8     3    29    1
     9     4     5    1
    10     5    25   ar
    11     5     6   ar
    12     6     7    1
    13     6    22   ar
    14     7     8    1
    15     7    30    1
    16     8     9    1
    17     8    31    1
    18     8    32    1
    19     9    21   ar
    20     9    10   ar
    21    10    11   ar
    22    10    33    1
    23    11    12   ar
    24    11    34    1
    25    12    13    1
    26    12    20   ar
    27    13    14    1
    28    14    19   ar
    29    14    15   ar
    30    15    16   ar
    31    15    35    1
    32    16    17   ar
    33    16    36    1
    34    17    18   ar
    35    17    37    1
    36    18    19   ar
    37    18    38    1
    38    19    39    1
    39    20    21   ar
    40    20    40    1
    41    21    41    1
    42    22    23   ar
    43    23    24   ar
    44    23    42    1
    45    24    25   ar
@<TRIPOS>SUBSTRUCTURE
     1 ZINC000676564986        1 TEMP              0 ****  ****    0 ROOT


##########                                Name:    ZINC000431691749
##########                DOCK_Rotatable_Bonds:                   4
##########                         Heavy_Atoms:                  24
##########                    Molecular_Weight:             328.454
##########                DOCK_Rotatable_Bonds:                   4
##########                       Formal_Charge:         -0.00999957
##########                     HBond_Acceptors:                   4
##########                        HBond_Donors:                   0
##########                         Heavy_Atoms:                  24
##########                          Grid_Score:          -30.214832
##########                     Grid_vdw_energy:          -29.446461
##########                      Grid_es_energy:           -0.768372
##########           Internal_energy_repulsive:          112.856552

@<TRIPOS>MOLECULE
ZINC000431691749
 52 54 1 0 0
SMALL
USER_CHARGES


@<TRIPOS>ATOM
      1 C1        -10.3087    0.1384   54.4331 C.3     1  ZINC000431691749   -0.1200
      2 C2        -10.9679   -1.2027   54.2383 C.ar    1  ZINC000431691749   -0.0800
      3 C3        -11.2195   -1.6703   52.9623 C.ar    1  ZINC000431691749   -0.1200
      4 C4        -11.8243   -2.9006   52.7835 C.ar    1  ZINC000431691749   -0.1100
      5 C5        -12.1768   -3.6634   53.8809 C.ar    1  ZINC000431691749   -0.1100
      6 C6        -11.9243   -3.1961   55.1574 C.ar    1  ZINC000431691749   -0.0800
      7 C7        -12.3089   -4.0276   56.3540 C.3     1  ZINC000431691749    0.2000
      8 H8        -11.8328   -5.0056   56.2850 H       1  ZINC000431691749    0.1100
      9 N9        -11.8675   -3.3549   57.5782 N.am    1  ZINC000431691749   -0.5700
     10 C10       -10.9974   -3.8838   58.4611 C.2     1  ZINC000431691749    0.5200
     11 O11       -10.4530   -4.9650   58.3946 O.2     1  ZINC000431691749   -0.4400
     12 C12       -10.8402   -2.8453   59.5541 C.3     1  ZINC000431691749    0.0900
     13 H13       -11.1692   -3.2452   60.5132 H       1  ZINC000431691749    0.1300
     14 C14        -9.3884   -2.3701   59.6403 C.3     1  ZINC000431691749   -0.1500
     15 N15       -11.7229   -1.7489   59.1193 N.am    1  ZINC000431691749   -0.6000
     16 C16       -11.9513   -0.4805   59.8159 C.3     1  ZINC000431691749    0.1500
     17 C17       -13.4265   -0.2293   60.1704 C.3     1  ZINC000431691749   -0.1600
     18 C18       -13.1530   -0.9671   61.4916 C.3     1  ZINC000431691749   -0.1400
     19 C19       -11.6817   -0.5511   61.3283 C.3     1  ZINC000431691749   -0.1500
     20 C20       -12.2738   -2.1371   57.9551 C.2     1  ZINC000431691749    0.7000
     21 O21       -13.0588   -1.4604   57.3203 O.2     1  ZINC000431691749   -0.5300
     22 C22       -13.8286   -4.2013   56.3871 C.3     1  ZINC000431691749   -0.0700
     23 C23       -14.2093   -5.4995   55.6725 C.3     1  ZINC000431691749   -0.1400
     24 C24       -14.3036   -4.2609   57.8403 C.3     1  ZINC000431691749   -0.1400
     25 C25       -14.4928   -3.0172   55.6816 C.3     1  ZINC000431691749   -0.1600
     26 C26       -11.3158   -1.9680   55.3360 C.ar    1  ZINC000431691749   -0.1100
     27 H27        -9.2265    0.0110   54.4585 H       1  ZINC000431691749    0.0700
     28 H28       -10.5777    0.7986   53.6086 H       1  ZINC000431691749    0.0700
     29 H29       -10.6453    0.5755   55.3732 H       1  ZINC000431691749    0.0700
     30 H30       -10.9441   -1.0743   52.1047 H       1  ZINC000431691749    0.1200
     31 H31       -12.0215   -3.2656   51.7864 H       1  ZINC000431691749    0.1200
     32 H32       -12.6497   -4.6242   53.7414 H       1  ZINC000431691749    0.1100
     33 H33        -9.0854   -1.9518   58.6804 H       1  ZINC000431691749    0.0700
     34 H34        -9.3015   -1.6063   60.4132 H       1  ZINC000431691749    0.0800
     35 H35        -8.7442   -3.2135   59.8888 H       1  ZINC000431691749    0.0800
     36 H36       -11.4686    0.3648   59.3253 H       1  ZINC000431691749    0.1000
     37 H37       -13.6706    0.8249   60.3013 H       1  ZINC000431691749    0.0900
     38 H38       -14.1271   -0.7492   59.5169 H       1  ZINC000431691749    0.0700
     39 H39       -13.6418   -0.5139   62.3540 H       1  ZINC000431691749    0.0700
     40 H40       -13.3117   -2.0438   61.4314 H       1  ZINC000431691749    0.0800
     41 H41       -10.9736   -1.3306   61.6097 H       1  ZINC000431691749    0.1000
     42 H42       -11.4488    0.4152   61.7758 H       1  ZINC000431691749    0.0900
     43 H43       -13.7361   -6.3431   56.1751 H       1  ZINC000431691749    0.0600
     44 H44       -15.2919   -5.6233   55.6961 H       1  ZINC000431691749    0.0600
     45 H45       -13.8709   -5.4571   54.6372 H       1  ZINC000431691749    0.0600
     46 H46       -14.0324   -3.3361   58.3494 H       1  ZINC000431691749    0.0500
     47 H47       -15.3863   -4.3847   57.8639 H       1  ZINC000431691749    0.0600
     48 H48       -13.8304   -5.1045   58.3428 H       1  ZINC000431691749    0.0500
     49 H49       -13.7947   -2.5822   54.9666 H       1  ZINC000431691749    0.0700
     50 H50       -15.3840   -3.3606   55.1564 H       1  ZINC000431691749    0.0400
     51 H51       -14.7729   -2.2653   56.4194 H       1  ZINC000431691749    0.1000
     52 H52       -11.1184   -1.6031   56.3331 H       1  ZINC000431691749    0.1300
@<TRIPOS>BOND
     1     1     2    1
     2     1    27    1
     3     1    28    1
     4     1    29    1
     5     2    26   ar
     6     2     3   ar
     7     3     4   ar
     8     3    30    1
     9     4     5   ar
    10     4    31    1
    11     5     6   ar
    12     5    32    1
    13     6     7    1
    14     6    26   ar
    15     7     8    1
    16     7     9    1
    17     7    22    1
    18     9    20   am
    19     9    10   am
    20    10    11    2
    21    10    12    1
    22    12    13    1
    23    12    14    1
    24    12    15    1
    25    14    33    1
    26    14    34    1
    27    14    35    1
    28    15    16    1
    29    15    20   am
    30    16    19    1
    31    16    17    1
    32    16    36    1
    33    17    18    1
    34    17    37    1
    35    17    38    1
    36    18    19    1
    37    18    39    1
    38    18    40    1
    39    19    41    1
    40    19    42    1
    41    20    21    2
    42    22    23    1
    43    22    24    1
    44    22    25    1
    45    23    43    1
    46    23    44    1
    47    23    45    1
    48    24    46    1
    49    24    47    1
    50    24    48    1
    51    25    49    1
    52    25    50    1
    53    25    51    1
    54    26    52    1
@<TRIPOS>SUBSTRUCTURE
     1 ZINC000431691749        1 TEMP              0 ****  ****    0 ROOT


##########                                Name:    ZINC000599228306
##########                DOCK_Rotatable_Bonds:                   8
##########                         Heavy_Atoms:                  25
##########                    Molecular_Weight:             379.382
##########                DOCK_Rotatable_Bonds:                   8
##########                       Formal_Charge:        -4.09782e-08
##########                     HBond_Acceptors:                  10
##########                        HBond_Donors:                   1
##########                         Heavy_Atoms:                  25
##########                          Grid_Score:          -30.170944
##########                     Grid_vdw_energy:          -28.785824
##########                      Grid_es_energy:           -1.385120
##########           Internal_energy_repulsive:           20.994802

@<TRIPOS>MOLECULE
ZINC000599228306
 44 44 1 0 0
SMALL
USER_CHARGES


@<TRIPOS>ATOM
      1 C1        -14.0426   -4.9744   54.6867 C.3     1  ZINC000599228306    0.0400
      2 O2        -14.8447   -4.4486   55.7769 O.3     1  ZINC000599228306   -0.3500
      3 C3        -14.5542   -4.8878   57.0171 C.2     1  ZINC000599228306    0.5100
      4 O4        -14.7628   -6.0468   57.3154 O.2     1  ZINC000599228306   -0.4800
      5 C5        -13.9829   -3.9608   58.0131 C.ar    1  ZINC000599228306   -0.1500
      6 C6        -14.8168   -3.3086   58.9241 C.ar    1  ZINC000599228306   -0.0100
      7 C7        -14.2751   -2.4425   59.8533 C.ar    1  ZINC000599228306    0.0700
      8 F8        -15.0805   -1.8109   60.7353 F       1  ZINC000599228306   -0.1200
      9 C9        -12.9073   -2.2198   59.8840 C.ar    1  ZINC000599228306    0.0100
     10 C10       -12.0754   -2.8617   58.9856 C.ar    1  ZINC000599228306   -0.7100
     11 S11       -10.3381   -2.5713   59.0345 S.o2    1  ZINC000599228306    2.7000
     12 O12        -9.8164   -3.4277   60.0412 O.2     1  ZINC000599228306   -0.9200
     13 O13        -9.8895   -2.5931   57.6863 O.2     1  ZINC000599228306   -0.9300
     14 N14       -10.1151   -1.0224   59.5765 N.am    1  ZINC000599228306   -1.1000
     15 C15       -10.6770    0.1040   58.8270 C.3     1  ZINC000599228306    0.1600
     16 H16       -11.5979   -0.2100   58.3355 H       1  ZINC000599228306    0.1300
     17 C17       -10.9787    1.2559   59.7876 C.3     1  ZINC000599228306   -0.1700
     18 C18        -9.6847    0.5618   57.7893 C.2     1  ZINC000599228306    0.4700
     19 O19        -9.6902    0.0655   56.6877 O.2     1  ZINC000599228306   -0.4900
     20 O20        -8.7947    1.5209   58.0889 O.3     1  ZINC000599228306   -0.3400
     21 C21        -8.6359    2.5967   57.1268 C.3     1  ZINC000599228306    0.1200
     22 C22        -7.7320    2.1296   55.9841 C.3     1  ZINC000599228306   -0.1900
     23 C23       -10.0054    2.9866   56.5670 C.3     1  ZINC000599228306   -0.1400
     24 C24        -8.0029    3.8075   57.8154 C.3     1  ZINC000599228306   -0.1800
     25 C25       -12.6027   -3.7356   58.0531 C.ar    1  ZINC000599228306    0.2500
     26 F26       -11.7884   -4.3624   57.1760 F       1  ZINC000599228306   -0.0900
     27 H27       -14.3797   -4.5404   53.7455 H       1  ZINC000599228306    0.1100
     28 H28       -12.9955   -4.7192   54.8501 H       1  ZINC000599228306    0.0700
     29 H29       -14.1502   -6.0583   54.6463 H       1  ZINC000599228306    0.0700
     30 H30       -15.8827   -3.4809   58.9016 H       1  ZINC000599228306    0.1700
     31 H31       -12.4894   -1.5414   60.6130 H       1  ZINC000599228306    0.1800
     32 H32        -9.6125   -0.8610   60.3903 H       1  ZINC000599228306    0.4300
     33 H33       -11.3968    2.0940   59.2298 H       1  ZINC000599228306    0.0900
     34 H34       -11.6965    0.9248   60.5380 H       1  ZINC000599228306    0.0700
     35 H35       -10.0578    1.5698   60.2790 H       1  ZINC000599228306    0.0800
     36 H36        -8.1829    1.2670   55.4934 H       1  ZINC000599228306    0.0600
     37 H37        -7.6127    2.9372   55.2618 H       1  ZINC000599228306    0.0700
     38 H38        -6.7563    1.8519   56.3828 H       1  ZINC000599228306    0.0800
     39 H39       -10.6493    3.3193   57.3811 H       1  ZINC000599228306    0.0700
     40 H40        -9.8861    3.7942   55.8447 H       1  ZINC000599228306    0.0800
     41 H41       -10.4563    2.1240   56.0763 H       1  ZINC000599228306    0.0700
     42 H42        -7.0272    3.5297   58.2142 H       1  ZINC000599228306    0.0800
     43 H43        -7.8837    4.6151   57.0931 H       1  ZINC000599228306    0.0700
     44 H44        -8.6468    4.1402   58.6295 H       1  ZINC000599228306    0.0600
@<TRIPOS>BOND
     1     1     2    1
     2     1    27    1
     3     1    28    1
     4     1    29    1
     5     2     3    1
     6     3     4    2
     7     3     5    1
     8     5    25   ar
     9     5     6   ar
    10     6     7   ar
    11     6    30    1
    12     7     8    1
    13     7     9   ar
    14     9    10   ar
    15     9    31    1
    16    10    11    1
    17    10    25   ar
    18    11    12    2
    19    11    13    2
    20    11    14   am
    21    14    15    1
    22    14    32    1
    23    15    16    1
    24    15    17    1
    25    15    18    1
    26    17    33    1
    27    17    34    1
    28    17    35    1
    29    18    19    2
    30    18    20    1
    31    20    21    1
    32    21    22    1
    33    21    23    1
    34    21    24    1
    35    22    36    1
    36    22    37    1
    37    22    38    1
    38    23    39    1
    39    23    40    1
    40    23    41    1
    41    24    42    1
    42    24    43    1
    43    24    44    1
    44    25    26    1
@<TRIPOS>SUBSTRUCTURE
     1 ZINC000599228306        1 TEMP              0 ****  ****    0 ROOT


##########                                Name:    ZINC000822449555
##########                DOCK_Rotatable_Bonds:                   5
##########                         Heavy_Atoms:                  27
##########                    Molecular_Weight:             366.383
##########                DOCK_Rotatable_Bonds:                   5
##########                       Formal_Charge:          -0.0100009
##########                     HBond_Acceptors:                  10
##########                        HBond_Donors:                   2
##########                         Heavy_Atoms:                  27
##########                          Grid_Score:          -30.080709
##########                     Grid_vdw_energy:          -30.159796
##########                      Grid_es_energy:            0.079087
##########           Internal_energy_repulsive:            7.458189

@<TRIPOS>MOLECULE
ZINC000822449555
 45 48 1 0 0
SMALL
USER_CHARGES


@<TRIPOS>ATOM
      1 C1        -13.7488   -2.3863   60.8608 C.3     1  ZINC000822449555   -0.1100
      2 C2        -12.8712   -2.5996   59.6543 C.ar    1  ZINC000822449555    0.1400
      3 N3        -13.3872   -3.1169   58.5559 N.ar    1  ZINC000822449555   -0.5000
      4 C4        -12.6541   -3.3219   57.4728 C.ar    1  ZINC000822449555    0.3000
      5 N5        -13.2431   -3.8706   56.3368 N.3     1  ZINC000822449555   -0.4700
      6 C6        -14.0723   -2.8760   55.6407 C.3     1  ZINC000822449555    0.0200
      7 C7        -14.6511   -3.5021   54.3691 C.3     1  ZINC000822449555    0.0600
      8 O8        -15.3906   -4.6761   54.7159 O.3     1  ZINC000822449555   -0.3800
      9 C9        -14.6135   -5.6664   55.3949 C.3     1  ZINC000822449555    0.0600
     10 C10       -14.0343   -5.0621   56.6768 C.3     1  ZINC000822449555    0.0300
     11 C11       -11.3025   -2.9951   57.4567 C.ar    1  ZINC000822449555   -0.1700
     12 C12       -10.7271   -2.4506   58.5902 C.ar    1  ZINC000822449555   -0.0500
     13 C13       -11.5318   -2.2446   59.7097 C.ar    1  ZINC000822449555    0.0600
     14 N14       -10.9914   -1.6956   60.8801 N.am    1  ZINC000822449555   -0.6600
     15 C15       -11.0718   -0.3686   61.1014 C.2     1  ZINC000822449555    0.5700
     16 O16       -11.6130    0.3523   60.2854 O.2     1  ZINC000822449555   -0.5100
     17 C17       -10.5021    0.2101   62.3351 C.ar    1  ZINC000822449555   -0.1800
     18 C18        -9.5921   -0.5226   63.1092 C.ar    1  ZINC000822449555   -0.0100
     19 C19        -9.0862    0.0602   64.2545 C.ar    1  ZINC000822449555   -0.1300
     20 C20        -9.4942    1.3478   64.6002 C.ar    1  ZINC000822449555    0.2300
     21 C21        -8.9557    1.9810   65.8287 C.2     1  ZINC000822449555    0.2100
     22 N22        -8.0925    1.4524   66.6741 N.2     1  ZINC000822449555   -0.2500
     23 N23        -7.8767    2.3142   67.6075 N.pl3   1  ZINC000822449555   -0.2200
     24 N24        -8.5752    3.3716   67.3810 N.2     1  ZINC000822449555   -0.0400
     25 N25        -9.2474    3.2048   66.2929 N.2     1  ZINC000822449555   -0.2500
     26 N26       -10.3579    2.0147   63.8442 N.ar    1  ZINC000822449555   -0.4500
     27 C27       -10.8584    1.4974   62.7436 C.ar    1  ZINC000822449555    0.1400
     28 H28       -14.1960   -1.3933   60.8138 H       1  ZINC000822449555    0.0800
     29 H29       -14.5368   -3.1393   60.8746 H       1  ZINC000822449555    0.0800
     30 H30       -13.1485   -2.4719   61.7665 H       1  ZINC000822449555    0.0700
     31 H31       -14.8858   -2.5594   56.2933 H       1  ZINC000822449555    0.0600
     32 H32       -13.4606   -2.0135   55.3757 H       1  ZINC000822449555    0.1000
     33 H33       -15.3122   -2.7869   53.8797 H       1  ZINC000822449555    0.1100
     34 H34       -13.8390   -3.7698   53.6931 H       1  ZINC000822449555    0.0600
     35 H35       -15.2474   -6.5164   55.6471 H       1  ZINC000822449555    0.1000
     36 H36       -13.8004   -5.9970   54.7487 H       1  ZINC000822449555    0.0600
     37 H37       -13.3950   -5.7955   57.1683 H       1  ZINC000822449555    0.1000
     38 H38       -14.8473   -4.7805   57.3460 H       1  ZINC000822449555    0.0600
     39 H39       -10.7095   -3.1646   56.5701 H       1  ZINC000822449555    0.1400
     40 H40        -9.6797   -2.1875   58.6065 H       1  ZINC000822449555    0.1500
     41 H41       -10.5596   -2.2707   61.5310 H       1  ZINC000822449555    0.4100
     42 H42        -9.2940   -1.5187   62.8174 H       1  ZINC000822449555    0.1600
     43 H43        -8.3832   -0.4753   64.8752 H       1  ZINC000822449555    0.1600
     44 H44        -7.2814    2.1863   68.3624 H       1  ZINC000822449555    0.4800
     45 H45       -11.5585    2.0706   62.1540 H       1  ZINC000822449555    0.1700
@<TRIPOS>BOND
     1     1     2    1
     2     1    28    1
     3     1    29    1
     4     1    30    1
     5     2    13   ar
     6     2     3   ar
     7     3     4   ar
     8     4     5    1
     9     4    11   ar
    10     5    10    1
    11     5     6    1
    12     6     7    1
    13     6    31    1
    14     6    32    1
    15     7     8    1
    16     7    33    1
    17     7    34    1
    18     8     9    1
    19     9    10    1
    20     9    35    1
    21     9    36    1
    22    10    37    1
    23    10    38    1
    24    11    12   ar
    25    11    39    1
    26    12    13   ar
    27    12    40    1
    28    13    14    1
    29    14    15   am
    30    14    41    1
    31    15    16    2
    32    15    17    1
    33    17    27   ar
    34    17    18   ar
    35    18    19   ar
    36    18    42    1
    37    19    20   ar
    38    19    43    1
    39    20    21    1
    40    20    26   ar
    41    21    25    1
    42    21    22    2
    43    22    23    1
    44    23    24    1
    45    23    44    1
    46    24    25    2
    47    26    27   ar
    48    27    45    1
@<TRIPOS>SUBSTRUCTURE
     1 ZINC000822449555        1 TEMP              0 ****  ****    0 ROOT


##########                                Name:    ZINC000444542200
##########                DOCK_Rotatable_Bonds:                   8
##########                         Heavy_Atoms:                  28
##########                    Molecular_Weight:             404.337
##########                DOCK_Rotatable_Bonds:                   8
##########                       Formal_Charge:           0.0200001
##########                     HBond_Acceptors:                  10
##########                        HBond_Donors:                   1
##########                         Heavy_Atoms:                  28
##########                          Grid_Score:          -30.067024
##########                     Grid_vdw_energy:          -27.607731
##########                      Grid_es_energy:           -2.459293
##########           Internal_energy_repulsive:           20.122295

@<TRIPOS>MOLECULE
ZINC000444542200
 45 46 1 0 0
SMALL
USER_CHARGES


@<TRIPOS>ATOM
      1 C1         -6.0178    0.8762   50.8339 C.3     1  ZINC000444542200    0.0300
      2 O2         -7.0601    1.6655   50.2571 O.3     1  ZINC000444542200   -0.3100
      3 C3         -8.1221    1.9608   51.0520 C.ar    1  ZINC000444542200    0.1800
      4 C4         -8.1719    1.4767   52.3503 C.ar    1  ZINC000444542200   -0.1700
      5 C5         -9.2565    1.7788   53.1622 C.ar    1  ZINC000444542200    0.2300
      6 N6         -9.3070    1.2910   54.4728 N.am    1  ZINC000444542200   -0.5800
      7 C7         -8.3546    1.7790   55.4733 C.3     1  ZINC000444542200    0.0700
      8 C8        -10.2320    0.3723   54.8147 C.2     1  ZINC000444542200    0.7100
      9 O9        -11.0226   -0.0326   53.9844 O.2     1  ZINC000444542200   -0.5500
     10 N10       -10.2807   -0.0975   56.0769 N.am    1  ZINC000444542200   -0.7300
     11 C11       -11.2850   -1.0975   56.4481 C.3     1  ZINC000444542200    0.1700
     12 H12       -11.5489   -1.6899   55.5721 H       1  ZINC000444542200    0.1500
     13 C13       -10.7234   -2.0013   57.5152 C.ar    1  ZINC000444542200   -0.1300
     14 C14        -9.9912   -1.4668   58.5585 C.ar    1  ZINC000444542200   -0.0800
     15 C15        -9.4752   -2.2947   59.5382 C.ar    1  ZINC000444542200   -0.0900
     16 C16        -9.6906   -3.6586   59.4765 C.ar    1  ZINC000444542200   -0.1100
     17 C17       -10.4234   -4.1970   58.4330 C.ar    1  ZINC000444542200    0.0800
     18 F18       -10.6343   -5.5300   58.3720 F       1  ZINC000444542200   -0.1200
     19 C19       -10.9457   -3.3661   57.4536 C.ar    1  ZINC000444542200    0.1000
     20 F20       -11.6613   -3.8893   56.4341 F       1  ZINC000444542200   -0.1100
     21 C21       -12.5335   -0.3925   56.9821 C.3     1  ZINC000444542200    0.4400
     22 F22       -12.1804    0.8645   57.4845 F       1  ZINC000444542200   -0.1600
     23 F23       -13.4602   -0.2369   55.9456 F       1  ZINC000444542200   -0.1700
     24 F24       -13.1016   -1.1604   58.0042 F       1  ZINC000444542200   -0.1800
     25 C25       -10.2906    2.5654   52.6736 C.ar    1  ZINC000444542200   -0.1900
     26 C26       -10.2396    3.0487   51.3751 C.ar    1  ZINC000444542200    0.1800
     27 O27       -11.2519    3.8188   50.8967 O.3     1  ZINC000444542200   -0.3100
     28 C28       -11.1738    4.2146   49.5259 C.3     1  ZINC000444542200    0.0300
     29 C29        -9.1532    2.7510   50.5662 C.ar    1  ZINC000444542200   -0.2900
     30 H30        -5.6022    1.3974   51.6962 H       1  ZINC000444542200    0.0600
     31 H31        -6.4227   -0.0850   51.1507 H       1  ZINC000444542200    0.0600
     32 H32        -5.2334    0.7140   50.0946 H       1  ZINC000444542200    0.1000
     33 H33        -7.3670    0.8646   52.7296 H       1  ZINC000444542200    0.1300
     34 H34        -8.7711    2.6519   55.9760 H       1  ZINC000444542200    0.0700
     35 H35        -8.1633    0.9947   56.2057 H       1  ZINC000444542200    0.0700
     36 H36        -7.4208    2.0534   54.9825 H       1  ZINC000444542200    0.0900
     37 H37        -9.6508    0.2264   56.7397 H       1  ZINC000444542200    0.4100
     38 H38        -9.8215   -0.4015   58.6083 H       1  ZINC000444542200    0.1400
     39 H39        -8.9030   -1.8753   60.3525 H       1  ZINC000444542200    0.1500
     40 H40        -9.2867   -4.3043   60.2423 H       1  ZINC000444542200    0.1500
     41 H41       -11.1350    2.8004   53.3047 H       1  ZINC000444542200    0.1400
     42 H42       -11.1556    3.3280   48.8921 H       1  ZINC000444542200    0.0600
     43 H43       -12.0419    4.8238   49.2735 H       1  ZINC000444542200    0.1000
     44 H44       -10.2645    4.7941   49.3662 H       1  ZINC000444542200    0.0600
     45 H45        -9.1139    3.1277   49.5548 H       1  ZINC000444542200    0.1400
@<TRIPOS>BOND
     1     1     2    1
     2     1    30    1
     3     1    31    1
     4     1    32    1
     5     2     3    1
     6     3    29   ar
     7     3     4   ar
     8     4     5   ar
     9     4    33    1
    10     5     6    1
    11     5    25   ar
    12     6     7    1
    13     6     8   am
    14     7    34    1
    15     7    35    1
    16     7    36    1
    17     8     9    2
    18     8    10   am
    19    10    11    1
    20    10    37    1
    21    11    12    1
    22    11    13    1
    23    11    21    1
    24    13    19   ar
    25    13    14   ar
    26    14    15   ar
    27    14    38    1
    28    15    16   ar
    29    15    39    1
    30    16    17   ar
    31    16    40    1
    32    17    18    1
    33    17    19   ar
    34    19    20    1
    35    21    22    1
    36    21    23    1
    37    21    24    1
    38    25    26   ar
    39    25    41    1
    40    26    27    1
    41    26    29   ar
    42    27    28    1
    43    28    42    1
    44    28    43    1
    45    28    44    1
    46    29    45    1
@<TRIPOS>SUBSTRUCTURE
     1 ZINC000444542200        1 TEMP              0 ****  ****    0 ROOT


##########                                Name:    ZINC000271662144
##########                DOCK_Rotatable_Bonds:                   8
##########                         Heavy_Atoms:                  26
##########                    Molecular_Weight:             390.402
##########                DOCK_Rotatable_Bonds:                   8
##########                       Formal_Charge:          0.00999944
##########                     HBond_Acceptors:                   9
##########                        HBond_Donors:                   3
##########                         Heavy_Atoms:                  26
##########                          Grid_Score:          -30.026712
##########                     Grid_vdw_energy:          -29.795427
##########                      Grid_es_energy:           -0.231285
##########           Internal_energy_repulsive:           11.166533

@<TRIPOS>MOLECULE
ZINC000271662144
 44 45 1 0 0
SMALL
USER_CHARGES


@<TRIPOS>ATOM
      1 C1        -15.2781   -4.4424   57.9901 C.3     1  ZINC000271662144   -0.1400
      2 C2        -14.2439   -3.6502   57.1878 C.3     1  ZINC000271662144    0.1200
      3 H3        -14.4432   -2.5836   57.2914 H       1  ZINC000271662144    0.0600
      4 N4        -14.3285   -4.0288   55.7710 N.3     1  ZINC000271662144   -0.6700
      5 C5        -13.6149   -3.0632   54.9245 C.3     1  ZINC000271662144    0.1300
      6 H6        -12.9311   -2.4774   55.5389 H       1  ZINC000271662144    0.1100
      7 C7        -12.8221   -3.8132   53.8523 C.3     1  ZINC000271662144   -0.2000
      8 C8        -11.8699   -2.8430   53.1500 C.3     1  ZINC000271662144    0.4600
      9 F9        -12.5745   -2.1135   52.1864 F       1  ZINC000271662144   -0.1800
     10 F10       -11.3214   -1.9648   54.0909 F       1  ZINC000271662144   -0.1800
     11 F11       -10.8431   -3.5638   52.5306 F       1  ZINC000271662144   -0.1700
     12 C12       -14.6092   -2.1440   54.2633 C.ar    1  ZINC000271662144   -0.0900
     13 C13       -14.4722   -0.7739   54.3877 C.ar    1  ZINC000271662144   -0.0600
     14 C14       -15.3833    0.0700   53.7817 C.ar    1  ZINC000271662144   -0.1600
     15 C15       -16.4336   -0.4571   53.0493 C.ar    1  ZINC000271662144    0.1000
     16 F16       -17.3248    0.3671   52.4562 F       1  ZINC000271662144   -0.1400
     17 C17       -16.5695   -1.8293   52.9250 C.ar    1  ZINC000271662144   -0.1500
     18 C18       -15.6543   -2.6712   53.5279 C.ar    1  ZINC000271662144   -0.0700
     19 C19       -12.8630   -3.9562   57.7079 C.ar    1  ZINC000271662144   -0.1100
     20 C20       -12.2496   -5.1502   57.3792 C.ar    1  ZINC000271662144   -0.0400
     21 C21       -10.9827   -5.4309   57.8563 C.ar    1  ZINC000271662144   -0.1400
     22 C22       -10.3295   -4.5172   58.6618 C.ar    1  ZINC000271662144   -0.0200
     23 C23       -10.9427   -3.3224   58.9900 C.ar    1  ZINC000271662144   -0.6800
     24 S24       -10.1101   -2.1578   60.0173 S.o2    1  ZINC000271662144    2.7000
     25 N25       -11.2171   -1.0032   60.4461 N.am    1  ZINC000271662144   -1.2500
     26 O26        -9.7678   -2.8485   61.2111 O.2     1  ZINC000271662144   -0.9600
     27 O27        -9.1519   -1.5086   59.1930 O.2     1  ZINC000271662144   -0.9600
     28 C28       -12.2074   -3.0399   58.5095 C.ar    1  ZINC000271662144   -0.0100
     29 H29       -16.2770   -4.2211   57.6138 H       1  ZINC000271662144    0.0600
     30 H30       -15.0790   -5.5091   57.8865 H       1  ZINC000271662144    0.0700
     31 H31       -15.2154   -4.1615   59.0414 H       1  ZINC000271662144    0.0600
     32 H32       -13.9797   -4.9644   55.6253 H       1  ZINC000271662144    0.3500
     33 H33       -12.2469   -4.6131   54.3185 H       1  ZINC000271662144    0.1100
     34 H34       -13.5106   -4.2386   53.1223 H       1  ZINC000271662144    0.1200
     35 H35       -13.6528   -0.3631   54.9589 H       1  ZINC000271662144    0.1300
     36 H36       -15.2766    1.1402   53.8796 H       1  ZINC000271662144    0.1400
     37 H37       -17.3886   -2.2415   52.3544 H       1  ZINC000271662144    0.1400
     38 H38       -15.7600   -3.7416   53.4307 H       1  ZINC000271662144    0.1300
     39 H39       -12.7600   -5.8642   56.7498 H       1  ZINC000271662144    0.1400
     40 H40       -10.5036   -6.3643   57.5999 H       1  ZINC000271662144    0.1400
     41 H41        -9.3401   -4.7368   59.0351 H       1  ZINC000271662144    0.1400
     42 H42       -11.6567   -0.4749   59.7616 H       1  ZINC000271662144    0.4200
     43 H43       -11.4259   -0.8552   61.3817 H       1  ZINC000271662144    0.4200
     44 H44       -12.6866   -2.1066   58.7658 H       1  ZINC000271662144    0.1400
@<TRIPOS>BOND
     1     1     2    1
     2     1    29    1
     3     1    30    1
     4     1    31    1
     5     2     3    1
     6     2     4    1
     7     2    19    1
     8     4     5    1
     9     4    32    1
    10     5     6    1
    11     5     7    1
    12     5    12    1
    13     7     8    1
    14     7    33    1
    15     7    34    1
    16     8     9    1
    17     8    10    1
    18     8    11    1
    19    12    18   ar
    20    12    13   ar
    21    13    14   ar
    22    13    35    1
    23    14    15   ar
    24    14    36    1
    25    15    16    1
    26    15    17   ar
    27    17    18   ar
    28    17    37    1
    29    18    38    1
    30    19    28   ar
    31    19    20   ar
    32    20    21   ar
    33    20    39    1
    34    21    22   ar
    35    21    40    1
    36    22    23   ar
    37    22    41    1
    38    23    24    1
    39    23    28   ar
    40    24    25   am
    41    24    26    2
    42    24    27    2
    43    25    42    1
    44    25    43    1
    45    28    44    1
@<TRIPOS>SUBSTRUCTURE
     1 ZINC000271662144        1 TEMP              0 ****  ****    0 ROOT


##########                                Name:    ZINC001625935330
##########                DOCK_Rotatable_Bonds:                   5
##########                         Heavy_Atoms:                  25
##########                    Molecular_Weight:             327.385
##########                DOCK_Rotatable_Bonds:                   5
##########                       Formal_Charge:           0.0199995
##########                     HBond_Acceptors:                   4
##########                        HBond_Donors:                   1
##########                         Heavy_Atoms:                  25
##########                          Grid_Score:          -29.982155
##########                     Grid_vdw_energy:          -29.391958
##########                      Grid_es_energy:           -0.590196
##########           Internal_energy_repulsive:           12.729437

@<TRIPOS>MOLECULE
ZINC001625935330
 42 44 1 0 0
SMALL
USER_CHARGES


@<TRIPOS>ATOM
      1 C1        -12.7983    0.3106   55.2108 C.3     1  ZINC001625935330   -0.1600
      2 C2        -11.5583   -0.5583   55.4313 C.3     1  ZINC001625935330    0.1800
      3 H3        -10.6823   -0.0501   55.0281 H       1  ZINC001625935330    0.1000
      4 N4        -11.3722   -0.7883   56.8661 N.am    1  ZINC001625935330   -0.7100
      5 C5        -10.1547   -0.6289   57.4218 C.2     1  ZINC001625935330    0.5800
      6 O6         -9.2110   -0.2958   56.7324 O.2     1  ZINC001625935330   -0.5300
      7 C7         -9.9667   -0.8599   58.8733 C.ar    1  ZINC001625935330    0.0800
      8 C8        -10.2970    0.1429   59.7783 C.ar    1  ZINC001625935330   -0.1000
      9 C9        -10.1139   -0.0919   61.1439 C.ar    1  ZINC001625935330    0.0000
     10 C10       -10.4523    0.9475   62.1472 C.ar    1  ZINC001625935330   -0.0600
     11 C11       -11.1816    2.0731   61.7693 C.ar    1  ZINC001625935330   -0.1000
     12 C12       -11.4940    3.0365   62.7068 C.ar    1  ZINC001625935330   -0.1200
     13 C13       -11.0846    2.8863   64.0196 C.ar    1  ZINC001625935330   -0.1100
     14 C14       -10.3604    1.7708   64.4003 C.ar    1  ZINC001625935330   -0.1200
     15 C15       -10.0470    0.7986   63.4722 C.ar    1  ZINC001625935330   -0.1000
     16 C16        -9.6042   -1.3310   61.5393 C.ar    1  ZINC001625935330   -0.1400
     17 C17        -9.3007   -2.2753   60.5746 C.ar    1  ZINC001625935330    0.1100
     18 N18        -9.4897   -2.0246   59.2972 N.ar    1  ZINC001625935330   -0.4600
     19 C19       -11.7397   -1.8798   54.7301 C.ar    1  ZINC001625935330   -0.0900
     20 C20       -11.0092   -2.1620   53.5898 C.ar    1  ZINC001625935330   -0.0800
     21 C21       -11.1696   -3.3731   52.9397 C.ar    1  ZINC001625935330   -0.1100
     22 C22       -12.0597   -4.3077   53.4257 C.ar    1  ZINC001625935330   -0.0700
     23 C23       -12.8001   -4.0296   54.5767 C.ar    1  ZINC001625935330   -0.0200
     24 C24       -13.7261   -4.9954   55.0871 C.1     1  ZINC001625935330    0.2500
     25 N25       -14.4607   -5.7616   55.4920 N.1     1  ZINC001625935330   -0.4100
     26 C26       -12.6298   -2.8077   55.2303 C.ar    1  ZINC001625935330   -0.0600
     27 H27       -12.9368    0.4818   54.1433 H       1  ZINC001625935330    0.0700
     28 H28       -13.6742   -0.1975   55.6140 H       1  ZINC001625935330    0.0600
     29 H29       -12.6671    1.2664   55.7180 H       1  ZINC001625935330    0.0700
     30 H30       -12.1251   -1.0553   57.4162 H       1  ZINC001625935330    0.4100
     31 H31       -10.6883    1.0879   59.4316 H       1  ZINC001625935330    0.1500
     32 H32       -11.5014    2.1916   60.7445 H       1  ZINC001625935330    0.1300
     33 H33       -12.0588    3.9095   62.4150 H       1  ZINC001625935330    0.1300
     34 H34       -11.3309    3.6428   64.7499 H       1  ZINC001625935330    0.1300
     35 H35       -10.0430    1.6587   65.4264 H       1  ZINC001625935330    0.1300
     36 H36        -9.4818   -0.0720   63.7705 H       1  ZINC001625935330    0.1300
     37 H37        -9.4486   -1.5491   62.5855 H       1  ZINC001625935330    0.1400
     38 H38        -8.9061   -3.2346   60.8754 H       1  ZINC001625935330    0.1700
     39 H39       -10.3108   -1.4336   53.2049 H       1  ZINC001625935330    0.1300
     40 H40       -10.5967   -3.5866   52.0494 H       1  ZINC001625935330    0.1400
     41 H41       -12.1842   -5.2523   52.9172 H       1  ZINC001625935330    0.1400
     42 H42       -13.1992   -2.5864   56.1209 H       1  ZINC001625935330    0.1400
@<TRIPOS>BOND
     1     1     2    1
     2     1    27    1
     3     1    28    1
     4     1    29    1
     5     2     3    1
     6     2     4    1
     7     2    19    1
     8     4     5   am
     9     4    30    1
    10     5     6    2
    11     5     7    1
    12     7    18   ar
    13     7     8   ar
    14     8     9   ar
    15     8    31    1
    16     9    10    1
    17     9    16   ar
    18    10    15   ar
    19    10    11   ar
    20    11    12   ar
    21    11    32    1
    22    12    13   ar
    23    12    33    1
    24    13    14   ar
    25    13    34    1
    26    14    15   ar
    27    14    35    1
    28    15    36    1
    29    16    17   ar
    30    16    37    1
    31    17    18   ar
    32    17    38    1
    33    19    26   ar
    34    19    20   ar
    35    20    21   ar
    36    20    39    1
    37    21    22   ar
    38    21    40    1
    39    22    23   ar
    40    22    41    1
    41    23    24    1
    42    23    26   ar
    43    24    25    3
    44    26    42    1
@<TRIPOS>SUBSTRUCTURE
     1 ZINC001625935330        1 TEMP              0 ****  ****    0 ROOT


##########                                Name:    ZINC000864477301
##########                DOCK_Rotatable_Bonds:                   6
##########                         Heavy_Atoms:                  26
##########                    Molecular_Weight:             393.891
##########                DOCK_Rotatable_Bonds:                   6
##########                       Formal_Charge:         -0.00999978
##########                     HBond_Acceptors:                   7
##########                        HBond_Donors:                   1
##########                         Heavy_Atoms:                  26
##########                          Grid_Score:          -29.942631
##########                     Grid_vdw_energy:          -28.685369
##########                      Grid_es_energy:           -1.257261
##########           Internal_energy_repulsive:            7.972926

@<TRIPOS>MOLECULE
ZINC000864477301
 46 47 1 0 0
SMALL
USER_CHARGES


@<TRIPOS>ATOM
      1 C1        -12.2693    5.0929   61.3093 C.3     1  ZINC000864477301   -0.1500
      2 C2        -11.7875    3.6467   61.4392 C.3     1  ZINC000864477301    0.0600
      3 O3        -11.6018    3.3226   62.8423 O.3     1  ZINC000864477301   -0.3500
      4 C4        -11.9707    2.0893   63.2392 C.2     1  ZINC000864477301    0.5100
      5 O5        -13.0104    1.9327   63.8477 O.2     1  ZINC000864477301   -0.5000
      6 C6        -11.1110    0.9272   62.9347 C.ar    1  ZINC000864477301   -0.1400
      7 C7        -10.3525    0.3324   63.9446 C.ar    1  ZINC000864477301   -0.0300
      8 C8         -9.5516   -0.7526   63.6532 C.ar    1  ZINC000864477301   -0.1500
      9 C9         -9.4988   -1.2509   62.3637 C.ar    1  ZINC000864477301   -0.0100
     10 C10       -10.2481   -0.6661   61.3579 C.ar    1  ZINC000864477301   -0.4900
     11 S11       -10.1732   -1.3089   59.7190 S.o     1  ZINC000864477301    1.3800
     12 O12       -10.5564   -0.1968   58.9216 O.2     1  ZINC000864477301   -0.8100
     13 C13       -11.4982   -2.5477   59.7057 C.3     1  ZINC000864477301   -0.4600
     14 H14       -11.2512   -3.3513   60.3992 H       1  ZINC000864477301    0.1400
     15 C15       -12.8133   -1.8923   60.1319 C.3     1  ZINC000864477301   -0.1400
     16 C16       -11.6451   -3.1111   58.3157 C.2     1  ZINC000864477301    0.5500
     17 O17       -10.7439   -3.7580   57.8252 O.2     1  ZINC000864477301   -0.5100
     18 N18       -12.7777   -2.8963   57.6177 N.am    1  ZINC000864477301   -0.6800
     19 C19       -12.9141   -3.4197   56.3266 C.ar    1  ZINC000864477301    0.1400
     20 C20       -12.3584   -2.7528   55.2434 C.ar    1  ZINC000864477301   -0.0600
     21 C21       -11.6073   -1.4638   55.4559 C.3     1  ZINC000864477301   -0.1100
     22 C22       -12.4942   -3.2721   53.9703 C.ar    1  ZINC000864477301   -0.1100
     23 C23       -13.1827   -4.4547   53.7738 C.ar    1  ZINC000864477301   -0.1000
     24 C24       -13.7382   -5.1221   54.8503 C.ar    1  ZINC000864477301   -0.1100
     25 C25       -13.6012   -4.6114   56.1270 C.ar    1  ZINC000864477301   -0.0200
     26 Cl26      -14.2981   -5.4496   57.4780 Cl      1  ZINC000864477301   -0.0600
     27 C27       -11.0577    0.4152   61.6365 C.ar    1  ZINC000864477301    0.0100
     28 H28       -13.2158    5.2095   61.8374 H       1  ZINC000864477301    0.0700
     29 H29       -11.5269    5.7636   61.7420 H       1  ZINC000864477301    0.0700
     30 H30       -12.4087    5.3363   60.2560 H       1  ZINC000864477301    0.0800
     31 H31       -12.5298    2.9761   61.0065 H       1  ZINC000864477301    0.0700
     32 H32       -10.8411    3.5302   60.9112 H       1  ZINC000864477301    0.0700
     33 H33       -10.3923    0.7209   64.9515 H       1  ZINC000864477301    0.1400
     34 H34        -8.9643   -1.2137   64.4335 H       1  ZINC000864477301    0.1400
     35 H35        -8.8696   -2.0999   62.1409 H       1  ZINC000864477301    0.1500
     36 H36       -13.6096   -2.6368   60.1239 H       1  ZINC000864477301    0.0700
     37 H37       -12.7072   -1.4848   61.1373 H       1  ZINC000864477301    0.0700
     38 H38       -13.0605   -1.0886   59.4383 H       1  ZINC000864477301    0.0700
     39 H39       -13.4984   -2.3789   58.0099 H       1  ZINC000864477301    0.4100
     40 H40       -10.5534   -1.6817   55.6293 H       1  ZINC000864477301    0.0800
     41 H41       -11.7074   -0.8348   54.5714 H       1  ZINC000864477301    0.0700
     42 H42       -12.0176   -0.9425   56.3208 H       1  ZINC000864477301    0.0700
     43 H43       -12.0623   -2.7532   53.1273 H       1  ZINC000864477301    0.1400
     44 H44       -13.2872   -4.8582   52.7775 H       1  ZINC000864477301    0.1400
     45 H45       -14.2758   -6.0457   54.6935 H       1  ZINC000864477301    0.1400
     46 H46       -11.6422    0.8705   60.8507 H       1  ZINC000864477301    0.1400
@<TRIPOS>BOND
     1     1     2    1
     2     1    28    1
     3     1    29    1
     4     1    30    1
     5     2     3    1
     6     2    31    1
     7     2    32    1
     8     3     4    1
     9     4     5    2
    10     4     6    1
    11     6    27   ar
    12     6     7   ar
    13     7     8   ar
    14     7    33    1
    15     8     9   ar
    16     8    34    1
    17     9    10   ar
    18     9    35    1
    19    10    11    1
    20    10    27   ar
    21    11    12    2
    22    11    13    1
    23    13    14    1
    24    13    15    1
    25    13    16    1
    26    15    36    1
    27    15    37    1
    28    15    38    1
    29    16    17    2
    30    16    18   am
    31    18    19    1
    32    18    39    1
    33    19    25   ar
    34    19    20   ar
    35    20    21    1
    36    20    22   ar
    37    21    40    1
    38    21    41    1
    39    21    42    1
    40    22    23   ar
    41    22    43    1
    42    23    24   ar
    43    23    44    1
    44    24    25   ar
    45    24    45    1
    46    25    26    1
    47    27    46    1
@<TRIPOS>SUBSTRUCTURE
     1 ZINC000864477301        1 TEMP              0 ****  ****    0 ROOT


##########                                Name:    ZINC000518937710
##########                DOCK_Rotatable_Bonds:                   6
##########                         Heavy_Atoms:                  25
##########                    Molecular_Weight:             397.421
##########                DOCK_Rotatable_Bonds:                   6
##########                       Formal_Charge:          -0.0199997
##########                     HBond_Acceptors:                  11
##########                        HBond_Donors:                   0
##########                         Heavy_Atoms:                  25
##########                          Grid_Score:          -29.940571
##########                     Grid_vdw_energy:          -29.958908
##########                      Grid_es_energy:            0.018338
##########           Internal_energy_repulsive:           25.625160

@<TRIPOS>MOLECULE
ZINC000518937710
 42 44 1 0 0
SMALL
USER_CHARGES


@<TRIPOS>ATOM
      1 C1        -11.2539   -3.4185   53.5218 C.3     1  ZINC000518937710   -0.1900
      2 C2        -11.7337   -3.2050   54.9588 C.3     1  ZINC000518937710    0.1700
      3 H3        -10.8744   -3.1793   55.6288 H       1  ZINC000518937710    0.1100
      4 C4        -12.4926   -1.8798   55.0515 C.3     1  ZINC000518937710   -0.6600
      5 S5        -11.3327   -0.5459   55.4587 S.o2    1  ZINC000518937710    2.4000
      6 C6        -12.4363    0.8894   55.5704 C.3     1  ZINC000518937710   -0.6600
      7 O7        -10.7864   -0.7982   56.7460 O.2     1  ZINC000518937710   -0.9200
      8 O8        -10.4548   -0.3573   54.3573 O.2     1  ZINC000518937710   -0.9300
      9 N9        -12.6216   -4.3043   55.3457 N.am    1  ZINC000518937710   -0.9600
     10 C10       -13.6116   -4.8156   54.3946 C.3     1  ZINC000518937710    0.0800
     11 C11       -15.0523   -4.9663   54.8871 C.3     1  ZINC000518937710   -0.1800
     12 C12       -14.6912   -3.8463   53.9092 C.3     1  ZINC000518937710   -0.1800
     13 S13       -12.5062   -4.9687   56.8582 S.o2    1  ZINC000518937710    2.6900
     14 O14       -13.5833   -5.8882   56.9758 O.2     1  ZINC000518937710   -0.9400
     15 O15       -11.1454   -5.3395   57.0308 O.2     1  ZINC000518937710   -0.9400
     16 C16       -12.8222   -3.6811   58.0189 C.ar    1  ZINC000518937710   -0.6400
     17 C17       -14.0623   -3.0713   58.0536 C.ar    1  ZINC000518937710   -0.0300
     18 C18       -14.3137   -2.0607   58.9630 C.ar    1  ZINC000518937710   -0.1300
     19 C19       -13.3263   -1.6563   59.8418 C.ar    1  ZINC000518937710   -0.0300
     20 C20       -12.0812   -2.2630   59.8127 C.ar    1  ZINC000518937710    0.0200
     21 C21       -11.8294   -3.2845   58.9001 C.ar    1  ZINC000518937710    0.1900
     22 O22       -10.5446   -3.7134   59.0688 O.3     1  ZINC000518937710   -0.2800
     23 C23        -9.8858   -2.6710   59.8122 C.3     1  ZINC000518937710    0.5700
     24 F24        -8.9343   -3.2138   60.6823 F       1  ZINC000518937710   -0.1200
     25 F25        -9.2880   -1.7508   58.9444 F       1  ZINC000518937710   -0.1400
     26 O26       -10.9555   -2.0550   60.5563 O.3     1  ZINC000518937710   -0.2900
     27 H27       -12.1152   -3.4809   52.8567 H       1  ZINC000518937710    0.1000
     28 H28       -10.6227   -2.5823   53.2215 H       1  ZINC000518937710    0.0800
     29 H29       -10.6821   -4.3447   53.4635 H       1  ZINC000518937710    0.0700
     30 H30       -12.9699   -1.6667   54.0950 H       1  ZINC000518937710    0.1600
     31 H31       -13.2530   -1.9501   55.8293 H       1  ZINC000518937710    0.1400
     32 H32       -13.1239    0.7549   56.4053 H       1  ZINC000518937710    0.1300
     33 H33       -11.8447    1.7912   55.7286 H       1  ZINC000518937710    0.1300
     34 H34       -13.0033    0.9847   54.6444 H       1  ZINC000518937710    0.1300
     35 H35       -13.2425   -5.5549   53.6837 H       1  ZINC000518937710    0.1500
     36 H36       -15.6313   -5.8049   54.5003 H       1  ZINC000518937710    0.1100
     37 H37       -15.2635   -4.6849   55.9187 H       1  ZINC000518937710    0.1000
     38 H38       -14.6650   -2.8282   54.2974 H       1  ZINC000518937710    0.1000
     39 H39       -15.0328   -3.9482   52.8790 H       1  ZINC000518937710    0.1000
     40 H40       -14.8362   -3.3846   57.3686 H       1  ZINC000518937710    0.1600
     41 H41       -15.2836   -1.5862   58.9866 H       1  ZINC000518937710    0.1600
     42 H42       -13.5256   -0.8666   60.5512 H       1  ZINC000518937710    0.1500
@<TRIPOS>BOND
     1     1     2    1
     2     1    27    1
     3     1    28    1
     4     1    29    1
     5     2     3    1
     6     2     4    1
     7     2     9    1
     8     4     5    1
     9     4    30    1
    10     4    31    1
    11     5     6    1
    12     5     7    2
    13     5     8    2
    14     6    32    1
    15     6    33    1
    16     6    34    1
    17     9    10    1
    18     9    13   am
    19    10    12    1
    20    10    11    1
    21    10    35    1
    22    11    12    1
    23    11    36    1
    24    11    37    1
    25    12    38    1
    26    12    39    1
    27    13    14    2
    28    13    15    2
    29    13    16    1
    30    16    21   ar
    31    16    17   ar
    32    17    18   ar
    33    17    40    1
    34    18    19   ar
    35    18    41    1
    36    19    20   ar
    37    19    42    1
    38    20    26    1
    39    20    21   ar
    40    21    22    1
    41    22    23    1
    42    23    24    1
    43    23    25    1
    44    23    26    1
@<TRIPOS>SUBSTRUCTURE
     1 ZINC000518937710        1 TEMP              0 ****  ****    0 ROOT


##########                                Name:    ZINC000506388363
##########                DOCK_Rotatable_Bonds:                   5
##########                         Heavy_Atoms:                  29
##########                    Molecular_Weight:             416.858
##########                DOCK_Rotatable_Bonds:                   5
##########                       Formal_Charge:         7.07805e-07
##########                     HBond_Acceptors:                   8
##########                        HBond_Donors:                   1
##########                         Heavy_Atoms:                  29
##########                          Grid_Score:          -29.932837
##########                     Grid_vdw_energy:          -29.515633
##########                      Grid_es_energy:           -0.417204
##########           Internal_energy_repulsive:           14.763320

@<TRIPOS>MOLECULE
ZINC000506388363
 48 51 1 0 0
SMALL
USER_CHARGES


@<TRIPOS>ATOM
      1 O1        -12.9117    0.6668   64.9514 O.2     1  ZINC000506388363   -0.5300
      2 C2        -11.8752    0.7503   64.3219 C.2     1  ZINC000506388363    0.5600
      3 C3        -10.7133    1.4574   64.9014 C.ar    1  ZINC000506388363   -0.1200
      4 C4        -10.7675    2.8352   65.1167 C.ar    1  ZINC000506388363   -0.0900
      5 C5         -9.6802    3.4897   65.6583 C.ar    1  ZINC000506388363   -0.1100
      6 C6         -8.5373    2.7835   65.9875 C.ar    1  ZINC000506388363   -0.0900
      7 C7         -8.4763    1.4162   65.7766 C.ar    1  ZINC000506388363   -0.0400
      8 Cl8        -7.0377    0.5386   66.1935 Cl      1  ZINC000506388363   -0.0600
      9 C9         -9.5596    0.7488   65.2408 C.ar    1  ZINC000506388363   -0.0600
     10 N10       -11.7835    0.1935   63.0980 N.am    1  ZINC000506388363   -0.6100
     11 C11       -12.9292   -0.5091   62.5005 C.3     1  ZINC000506388363    0.1000
     12 C12       -13.1627    0.0497   61.0928 C.3     1  ZINC000506388363    0.0400
     13 N13       -11.9138   -0.0322   60.3236 N.3     1  ZINC000506388363   -0.5300
     14 C14       -12.1364    0.3329   58.9182 C.3     1  ZINC000506388363    0.1200
     15 C15       -10.8205    0.3278   58.1836 C.2     1  ZINC000506388363   -0.2100
     16 C16       -10.0048    1.3897   58.0052 C.2     1  ZINC000506388363    0.0600
     17 N17        -8.9307    0.9764   57.2990 N.pl3   1  ZINC000506388363   -0.4700
     18 N18        -9.0852   -0.3894   57.0296 N.2     1  ZINC000506388363   -0.2700
     19 C19       -10.2197   -0.7865   57.5659 C.2     1  ZINC000506388363    0.1300
     20 C20       -10.7732   -2.1625   57.5189 C.ar    1  ZINC000506388363   -0.0700
     21 C21       -11.8096   -2.4710   56.6375 C.ar    1  ZINC000506388363    0.1500
     22 F22       -12.3123   -1.5173   55.8233 F       1  ZINC000506388363   -0.1200
     23 C23       -12.3209   -3.7550   56.5988 C.ar    1  ZINC000506388363   -0.1600
     24 C24       -11.8072   -4.7325   57.4312 C.ar    1  ZINC000506388363   -0.0500
     25 C25       -10.7798   -4.4333   58.3073 C.ar    1  ZINC000506388363   -0.1600
     26 C26       -10.2556   -3.1547   58.3519 C.ar    1  ZINC000506388363    0.1600
     27 F27        -9.2520   -2.8638   59.2083 F       1  ZINC000506388363   -0.1200
     28 C28       -10.8627    0.8002   60.9237 C.3     1  ZINC000506388363    0.0400
     29 C29       -10.5370    0.2776   62.3219 C.3     1  ZINC000506388363    0.1200
     30 H30       -11.6589    3.3882   64.8595 H       1  ZINC000506388363    0.1400
     31 H31        -9.7215    4.5559   65.8251 H       1  ZINC000506388363    0.1400
     32 H32        -7.6888    3.3009   66.4103 H       1  ZINC000506388363    0.1400
     33 H33        -9.5115   -0.3176   65.0769 H       1  ZINC000506388363    0.1400
     34 H34       -12.7134   -1.5758   62.4398 H       1  ZINC000506388363    0.0800
     35 H35       -13.8174   -0.3464   63.1110 H       1  ZINC000506388363    0.1000
     36 H36       -13.9363   -0.5337   60.5936 H       1  ZINC000506388363    0.0900
     37 H37       -13.4793    1.0903   61.1625 H       1  ZINC000506388363    0.0400
     38 H38       -12.8121   -0.3880   58.4582 H       1  ZINC000506388363    0.1000
     39 H39       -12.5773    1.3284   58.8669 H       1  ZINC000506388363    0.0400
     40 H40       -10.1810    2.3930   58.3642 H       1  ZINC000506388363    0.1800
     41 H41        -8.1823    1.5295   57.0253 H       1  ZINC000506388363    0.4400
     42 H42       -13.1235   -3.9951   55.9171 H       1  ZINC000506388363    0.1500
     43 H43       -12.2102   -5.7339   57.3974 H       1  ZINC000506388363    0.1500
     44 H44       -10.3832   -5.2011   58.9550 H       1  ZINC000506388363    0.1500
     45 H45        -9.9684    0.7612   60.3018 H       1  ZINC000506388363    0.0900
     46 H46       -11.2114    1.8304   60.9958 H       1  ZINC000506388363    0.0400
     47 H47        -9.8423    0.9578   62.8145 H       1  ZINC000506388363    0.1000
     48 H48       -10.0915   -0.7146   62.2473 H       1  ZINC000506388363    0.0800
@<TRIPOS>BOND
     1     1     2    2
     2     2     3    1
     3     2    10   am
     4     3     9   ar
     5     3     4   ar
     6     4     5   ar
     7     4    30    1
     8     5     6   ar
     9     5    31    1
    10     6     7   ar
    11     6    32    1
    12     7     8    1
    13     7     9   ar
    14     9    33    1
    15    10    29    1
    16    10    11    1
    17    11    12    1
    18    11    34    1
    19    11    35    1
    20    12    13    1
    21    12    36    1
    22    12    37    1
    23    13    14    1
    24    13    28    1
    25    14    15    1
    26    14    38    1
    27    14    39    1
    28    15    19    1
    29    15    16    2
    30    16    17    1
    31    16    40    1
    32    17    18    1
    33    17    41    1
    34    18    19    2
    35    19    20    1
    36    20    26   ar
    37    20    21   ar
    38    21    22    1
    39    21    23   ar
    40    23    24   ar
    41    23    42    1
    42    24    25   ar
    43    24    43    1
    44    25    26   ar
    45    25    44    1
    46    26    27    1
    47    28    29    1
    48    28    45    1
    49    28    46    1
    50    29    47    1
    51    29    48    1
@<TRIPOS>SUBSTRUCTURE
     1 ZINC000506388363        1 TEMP              0 ****  ****    0 ROOT


##########                                Name:    ZINC000130059363
##########                DOCK_Rotatable_Bonds:                   4
##########                         Heavy_Atoms:                  29
##########                    Molecular_Weight:             389.497
##########                DOCK_Rotatable_Bonds:                   4
##########                       Formal_Charge:          -0.0100003
##########                     HBond_Acceptors:                   5
##########                        HBond_Donors:                   0
##########                         Heavy_Atoms:                  29
##########                          Grid_Score:          -29.924637
##########                     Grid_vdw_energy:          -28.984211
##########                      Grid_es_energy:           -0.940426
##########           Internal_energy_repulsive:           25.205246

@<TRIPOS>MOLECULE
ZINC000130059363
 56 60 1 0 0
SMALL
USER_CHARGES


@<TRIPOS>ATOM
      1 C1        -15.4130   -2.9713   59.1983 C.3     1  ZINC000130059363   -0.1200
      2 C2        -13.9084   -3.0219   59.1300 C.ar    1  ZINC000130059363    0.1900
      3 N3        -13.1948   -2.4560   60.0785 N.ar    1  ZINC000130059363   -0.4800
      4 C4        -11.8671   -2.4756   60.0606 C.ar    1  ZINC000130059363    0.2000
      5 C5        -11.1110   -1.8225   61.1554 C.ar    1  ZINC000130059363   -0.0600
      6 C6        -11.7397   -0.8922   61.9821 C.ar    1  ZINC000130059363   -0.1000
      7 C7        -11.0308   -0.2878   63.0001 C.ar    1  ZINC000130059363   -0.1200
      8 C8         -9.6988   -0.6029   63.2010 C.ar    1  ZINC000130059363   -0.1000
      9 C9         -9.0696   -1.5247   62.3836 C.ar    1  ZINC000130059363   -0.1300
     10 C10        -9.7699   -2.1403   61.3663 C.ar    1  ZINC000130059363   -0.0700
     11 C11       -11.1749   -3.1031   59.0250 C.ar    1  ZINC000130059363   -0.1800
     12 C12       -11.8865   -3.7096   58.0090 C.ar    1  ZINC000130059363   -0.0400
     13 C13       -13.2866   -3.6741   58.0630 C.ar    1  ZINC000130059363   -0.1900
     14 C14       -14.0932   -4.3086   57.0007 C.2     1  ZINC000130059363    0.5700
     15 O15       -14.5281   -5.4330   57.1573 O.2     1  ZINC000130059363   -0.5200
     16 N16       -14.3471   -3.6410   55.8577 N.am    1  ZINC000130059363   -0.6000
     17 C17       -15.1529   -4.2543   54.7923 C.3     1  ZINC000130059363    0.1000
     18 C18       -16.3135   -3.3117   54.4599 C.3     1  ZINC000130059363   -0.1500
     19 C19       -15.7743   -1.9263   54.1219 C.3     1  ZINC000130059363    0.1500
     20 H20       -16.6227   -1.2702   53.9270 H       1  ZINC000130059363    0.0700
     21 C21       -14.9855   -1.3477   55.2950 C.3     1  ZINC000130059363   -0.1100
     22 H22       -15.6417   -1.2067   56.1538 H       1  ZINC000130059363    0.1000
     23 C23       -14.3979    0.0019   54.8525 C.3     1  ZINC000130059363   -0.1200
     24 C24       -13.3349   -0.2667   53.7842 C.3     1  ZINC000130059363   -0.1400
     25 C25       -13.8741   -1.2007   52.7396 C.2     1  ZINC000130059363    0.5200
     26 O26       -13.2933   -1.2705   51.6771 O.2     1  ZINC000130059363   -0.5400
     27 N27       -14.9456   -1.9620   52.9273 N.am    1  ZINC000130059363   -0.5700
     28 C28       -15.3406   -2.8780   51.8544 C.3     1  ZINC000130059363    0.0700
     29 C29       -16.7745   -2.7760   51.3305 C.3     1  ZINC000130059363   -0.1800
     30 C30       -15.6098   -2.2752   50.4741 C.3     1  ZINC000130059363   -0.1600
     31 C31       -13.8300   -2.2826   55.6513 C.3     1  ZINC000130059363    0.1100
     32 H32       -15.7867   -3.8864   59.6578 H       1  ZINC000130059363    0.0800
     33 H33       -15.7210   -2.1130   59.7953 H       1  ZINC000130059363    0.0800
     34 H34       -15.8194   -2.8782   58.1912 H       1  ZINC000130059363    0.1000
     35 H35       -12.7794   -0.6449   61.8259 H       1  ZINC000130059363    0.1300
     36 H36       -11.5167    0.4329   63.6411 H       1  ZINC000130059363    0.1300
     37 H37        -9.1478   -0.1271   63.9987 H       1  ZINC000130059363    0.1300
     38 H38        -8.0294   -1.7666   62.5450 H       1  ZINC000130059363    0.1300
     39 H39        -9.2777   -2.8599   60.7288 H       1  ZINC000130059363    0.1400
     40 H40       -10.0949   -3.1142   59.0178 H       1  ZINC000130059363    0.1400
     41 H41       -11.3767   -4.2026   57.1944 H       1  ZINC000130059363    0.1400
     42 H42       -14.5364   -4.4041   53.9059 H       1  ZINC000130059363    0.0700
     43 H43       -15.5446   -5.2125   55.1337 H       1  ZINC000130059363    0.0900
     44 H44       -16.8654   -3.7039   53.6057 H       1  ZINC000130059363    0.0900
     45 H45       -16.9804   -3.2413   55.3191 H       1  ZINC000130059363    0.0800
     46 H46       -15.1872    0.6280   54.4366 H       1  ZINC000130059363    0.0800
     47 H47       -13.9423    0.5024   55.7068 H       1  ZINC000130059363    0.0900
     48 H48       -13.0494    0.6745   53.3144 H       1  ZINC000130059363    0.1000
     49 H49       -12.4584   -0.7150   54.2517 H       1  ZINC000130059363    0.1000
     50 H50       -14.8872   -3.8685   51.8912 H       1  ZINC000130059363    0.1100
     51 H51       -17.2648   -3.6996   51.0227 H       1  ZINC000130059363    0.1100
     52 H52       -17.4240   -2.0273   51.7842 H       1  ZINC000130059363    0.1000
     53 H53       -15.4929   -1.1971   50.3644 H       1  ZINC000130059363    0.1000
     54 H54       -15.3338   -2.8693   49.6029 H       1  ZINC000130059363    0.1000
     55 H55       -13.3466   -1.9330   56.5635 H       1  ZINC000130059363    0.1000
     56 H56       -13.1066   -2.2946   54.8361 H       1  ZINC000130059363    0.0700
@<TRIPOS>BOND
     1     1     2    1
     2     1    32    1
     3     1    33    1
     4     1    34    1
     5     2    13   ar
     6     2     3   ar
     7     3     4   ar
     8     4     5    1
     9     4    11   ar
    10     5    10   ar
    11     5     6   ar
    12     6     7   ar
    13     6    35    1
    14     7     8   ar
    15     7    36    1
    16     8     9   ar
    17     8    37    1
    18     9    10   ar
    19     9    38    1
    20    10    39    1
    21    11    12   ar
    22    11    40    1
    23    12    13   ar
    24    12    41    1
    25    13    14    1
    26    14    15    2
    27    14    16   am
    28    16    31    1
    29    16    17    1
    30    17    18    1
    31    17    42    1
    32    17    43    1
    33    18    19    1
    34    18    44    1
    35    18    45    1
    36    19    20    1
    37    19    27    1
    38    19    21    1
    39    21    22    1
    40    21    23    1
    41    21    31    1
    42    23    24    1
    43    23    46    1
    44    23    47    1
    45    24    25    1
    46    24    48    1
    47    24    49    1
    48    25    26    2
    49    25    27   am
    50    27    28    1
    51    28    30    1
    52    28    29    1
    53    28    50    1
    54    29    30    1
    55    29    51    1
    56    29    52    1
    57    30    53    1
    58    30    54    1
    59    31    55    1
    60    31    56    1
@<TRIPOS>SUBSTRUCTURE
     1 ZINC000130059363        1 TEMP              0 ****  ****    0 ROOT


##########                                Name:    ZINC001098311495
##########                DOCK_Rotatable_Bonds:                   8
##########                         Heavy_Atoms:                  24
##########                    Molecular_Weight:             328.454
##########                DOCK_Rotatable_Bonds:                   8
##########                       Formal_Charge:          0.00999987
##########                     HBond_Acceptors:                   4
##########                        HBond_Donors:                   1
##########                         Heavy_Atoms:                  24
##########                          Grid_Score:          -29.917013
##########                     Grid_vdw_energy:          -30.000347
##########                      Grid_es_energy:            0.083334
##########           Internal_energy_repulsive:           26.652349

@<TRIPOS>MOLECULE
ZINC001098311495
 52 54 1 0 0
SMALL
USER_CHARGES


@<TRIPOS>ATOM
      1 C1        -12.4290    2.0408   51.4466 C.3     1  ZINC001098311495   -0.1500
      2 C2        -12.6086    0.8585   52.4010 C.3     1  ZINC001098311495    0.0500
      3 O3        -11.4834    0.7793   53.2784 O.3     1  ZINC001098311495   -0.2800
      4 C4        -10.3083    0.3712   52.7374 C.ar    1  ZINC001098311495    0.1900
      5 C5         -9.3177    1.2963   52.4445 C.ar    1  ZINC001098311495   -0.2200
      6 C6         -8.1244    0.8801   51.8877 C.ar    1  ZINC001098311495   -0.0500
      7 C7         -7.9047   -0.4618   51.6241 C.ar    1  ZINC001098311495   -0.1700
      8 C8         -8.8758   -1.3957   51.9145 C.ar    1  ZINC001098311495   -0.0500
      9 C9        -10.0874   -0.9885   52.4774 C.ar    1  ZINC001098311495   -0.1800
     10 C10       -11.1313   -1.9829   52.7908 C.2     1  ZINC001098311495    0.5600
     11 O11       -11.8178   -2.4450   51.8999 O.2     1  ZINC001098311495   -0.5200
     12 N12       -11.3241   -2.3789   54.0645 N.am    1  ZINC001098311495   -0.7200
     13 C13       -12.3595   -3.3676   54.3755 C.3     1  ZINC001098311495    0.1600
     14 H14       -12.4280   -4.1121   53.5824 H       1  ZINC001098311495    0.1000
     15 C15       -13.7262   -2.6744   54.5966 C.3     1  ZINC001098311495   -0.1200
     16 C16       -14.0815   -3.0316   56.0715 C.3     1  ZINC001098311495    0.0500
     17 H17       -14.8050   -2.3742   56.5537 H       1  ZINC001098311495    0.1100
     18 C18       -14.4498   -4.5459   56.0620 C.3     1  ZINC001098311495   -0.1500
     19 C19       -13.0868   -5.2485   55.8483 C.3     1  ZINC001098311495   -0.1500
     20 C20       -12.0715   -4.0510   55.7463 C.3     1  ZINC001098311495    0.0400
     21 H21       -11.0300   -4.2999   55.9496 H       1  ZINC001098311495    0.1200
     22 N22       -12.7113   -3.0722   56.6962 N.3     1  ZINC001098311495   -0.4900
     23 C23       -12.7695   -3.6211   58.0575 C.3     1  ZINC001098311495    0.0600
     24 C24       -11.3792   -3.6773   58.6363 C.2     1  ZINC001098311495   -0.1600
     25 C25       -10.7396   -2.5679   58.9129 C.2     1  ZINC001098311495   -0.1200
     26 C26       -11.3941   -1.2358   58.6523 C.3     1  ZINC001098311495   -0.1200
     27 C27        -9.3493   -2.6241   59.4917 C.3     1  ZINC001098311495   -0.1200
     28 H28       -12.3510    2.9634   52.0218 H       1  ZINC001098311495    0.0700
     29 H29       -11.5207    1.9000   50.8607 H       1  ZINC001098311495    0.0700
     30 H30       -13.2872    2.1012   50.7774 H       1  ZINC001098311495    0.0800
     31 H31       -12.6865   -0.0641   51.8259 H       1  ZINC001098311495    0.0600
     32 H32       -13.5169    0.9992   52.9869 H       1  ZINC001098311495    0.0600
     33 H33        -9.4815    2.3443   52.6476 H       1  ZINC001098311495    0.1300
     34 H34        -7.3579    1.6050   51.6570 H       1  ZINC001098311495    0.1300
     35 H35        -6.9679   -0.7777   51.1891 H       1  ZINC001098311495    0.1300
     36 H36        -8.7003   -2.4409   51.7069 H       1  ZINC001098311495    0.1300
     37 H37       -10.7772   -2.0093   54.7754 H       1  ZINC001098311495    0.4000
     38 H38       -14.4750   -3.0756   53.9136 H       1  ZINC001098311495    0.0800
     39 H39       -13.6333   -1.5953   54.4749 H       1  ZINC001098311495    0.0800
     40 H40       -14.8880   -4.8403   57.0157 H       1  ZINC001098311495    0.0700
     41 H41       -15.1302   -4.7702   55.2404 H       1  ZINC001098311495    0.0800
     42 H42       -12.8493   -5.8912   56.6961 H       1  ZINC001098311495    0.0700
     43 H43       -13.0914   -5.8212   54.9209 H       1  ZINC001098311495    0.0800
     44 H44       -13.1909   -4.6259   58.0264 H       1  ZINC001098311495    0.0500
     45 H45       -13.3968   -2.9832   58.6801 H       1  ZINC001098311495    0.0800
     46 H46       -10.9101   -4.6319   58.8232 H       1  ZINC001098311495    0.1100
     47 H47       -11.1566   -0.9059   57.6410 H       1  ZINC001098311495    0.0700
     48 H48       -11.0247   -0.5029   59.3697 H       1  ZINC001098311495    0.0600
     49 H49       -12.4744   -1.3349   58.7579 H       1  ZINC001098311495    0.0600
     50 H50        -9.4106   -2.7359   60.5742 H       1  ZINC001098311495    0.0700
     51 H51        -8.8135   -3.4736   59.0685 H       1  ZINC001098311495    0.0600
     52 H52        -8.8181   -1.7031   59.2512 H       1  ZINC001098311495    0.0600
@<TRIPOS>BOND
     1     1     2    1
     2     1    28    1
     3     1    29    1
     4     1    30    1
     5     2     3    1
     6     2    31    1
     7     2    32    1
     8     3     4    1
     9     4     9   ar
    10     4     5   ar
    11     5     6   ar
    12     5    33    1
    13     6     7   ar
    14     6    34    1
    15     7     8   ar
    16     7    35    1
    17     8     9   ar
    18     8    36    1
    19     9    10    1
    20    10    11    2
    21    10    12   am
    22    12    13    1
    23    12    37    1
    24    13    14    1
    25    13    20    1
    26    13    15    1
    27    15    16    1
    28    15    38    1
    29    15    39    1
    30    16    17    1
    31    16    22    1
    32    16    18    1
    33    18    19    1
    34    18    40    1
    35    18    41    1
    36    19    20    1
    37    19    42    1
    38    19    43    1
    39    20    21    1
    40    20    22    1
    41    22    23    1
    42    23    24    1
    43    23    44    1
    44    23    45    1
    45    24    25    2
    46    24    46    1
    47    25    26    1
    48    25    27    1
    49    26    47    1
    50    26    48    1
    51    26    49    1
    52    27    50    1
    53    27    51    1
    54    27    52    1
@<TRIPOS>SUBSTRUCTURE
     1 ZINC001098311495        1 TEMP              0 ****  ****    0 ROOT


##########                                Name:    ZINC000338927927
##########                DOCK_Rotatable_Bonds:                   9
##########                         Heavy_Atoms:                  23
##########                    Molecular_Weight:             336.286
##########                DOCK_Rotatable_Bonds:                   9
##########                       Formal_Charge:         -0.00999999
##########                     HBond_Acceptors:                   9
##########                        HBond_Donors:                   2
##########                         Heavy_Atoms:                  23
##########                          Grid_Score:          -29.894169
##########                     Grid_vdw_energy:          -29.654024
##########                      Grid_es_energy:           -0.240145
##########           Internal_energy_repulsive:            8.478181

@<TRIPOS>MOLECULE
ZINC000338927927
 39 39 1 0 0
SMALL
USER_CHARGES


@<TRIPOS>ATOM
      1 C1        -13.8468   -1.8781   50.7957 C.3     1  <0>        -0.1600
      2 C2        -12.8386   -0.9558   51.4839 C.3     1  <0>        -0.1100
      3 C3        -11.5422   -1.7241   51.7481 C.3     1  <0>        -0.1000
      4 H4        -11.2529   -2.2685   50.8492 H       1  <0>         0.1400
      5 C5        -11.7566   -2.6979   52.8780 C.2     1  <0>         0.5200
      6 O6        -11.2246   -3.7874   52.8489 O.2     1  <0>        -0.4700
      7 N7        -12.5398   -2.3581   53.9210 N.am    1  <0>        -0.6700
      8 C8        -12.7390   -3.2622   54.9701 C.ar    1  <0>         0.2200
      9 C9        -13.7810   -4.1781   54.9095 C.ar    1  <0>        -0.2300
     10 C10       -13.9786   -5.0728   55.9471 C.ar    1  <0>         0.1700
     11 F11       -14.9930   -5.9630   55.8860 F       1  <0>        -0.1300
     12 C12       -13.1384   -5.0570   57.0462 C.ar    1  <0>        -0.2500
     13 C13       -12.0946   -4.1423   57.1107 C.ar    1  <0>         0.2600
     14 N14       -11.2469   -4.1264   58.2207 N.pl3   1  <0>        -0.7400
     15 C15       -10.6323   -2.8695   58.6551 C.3     1  <0>         0.0800
     16 C16        -9.9103   -3.0882   59.9860 C.3     1  <0>         0.4500
     17 F17        -9.3867   -1.8720   60.4378 F       1  <0>        -0.1800
     18 F18       -10.8140   -3.5865   60.9306 F       1  <0>        -0.1700
     19 F19        -8.8697   -4.0060   59.8068 F       1  <0>        -0.1800
     20 C20       -11.8917   -3.2479   56.0691 C.ar    1  <0>        -0.2000
     21 C21       -10.4506   -0.7543   52.1211 C.2     1  <0>         0.4600
     22 O22       -10.7254    0.2740   52.6928 O.2     1  <0>        -0.4600
     23 O23        -9.1730   -1.0330   51.8183 O.3     1  <0>        -0.3500
     24 C24        -8.1835   -0.0200   52.1390 C.3     1  <0>         0.0300
     25 H25       -14.0557   -2.7327   51.4390 H       1  <0>         0.0600
     26 H26       -14.7704   -1.3306   50.6074 H       1  <0>         0.0600
     27 H27       -13.4326   -2.2279   49.8500 H       1  <0>         0.0800
     28 H28       -12.6298   -0.1011   50.8405 H       1  <0>         0.0800
     29 H29       -13.2528   -0.6061   52.4296 H       1  <0>         0.0800
     30 H30       -12.9653   -1.4867   53.9443 H       1  <0>         0.4200
     31 H31       -14.4379   -4.1920   54.0525 H       1  <0>         0.1400
     32 H32       -13.2943   -5.7560   57.8546 H       1  <0>         0.1400
     33 H33       -11.0651   -4.9475   58.7038 H       1  <0>         0.4100
     34 H34        -9.9163   -2.5365   57.9037 H       1  <0>         0.1100
     35 H35       -11.4055   -2.1117   58.7813 H       1  <0>         0.1100
     36 H36       -11.0809   -2.5363   56.1177 H       1  <0>         0.1500
     37 H37        -7.1948   -0.3712   51.8433 H       1  <0>         0.1000
     38 H38        -8.4178    0.8995   51.6026 H       1  <0>         0.0600
     39 H39        -8.1948    0.1723   53.2118 H       1  <0>         0.0600
@<TRIPOS>BOND
     1     1     2    1
     2     1    25    1
     3     1    26    1
     4     1    27    1
     5     2     3    1
     6     2    28    1
     7     2    29    1
     8     3     4    1
     9     3     5    1
    10     3    21    1
    11     5     6    2
    12     5     7   am
    13     7     8    1
    14     7    30    1
    15     8    20   ar
    16     8     9   ar
    17     9    10   ar
    18     9    31    1
    19    10    11    1
    20    10    12   ar
    21    12    13   ar
    22    12    32    1
    23    13    14    1
    24    13    20   ar
    25    14    15    1
    26    14    33    1
    27    15    16    1
    28    15    34    1
    29    15    35    1
    30    16    17    1
    31    16    18    1
    32    16    19    1
    33    20    36    1
    34    21    22    2
    35    21    23    1
    36    23    24    1
    37    24    37    1
    38    24    38    1
    39    24    39    1
@<TRIPOS>SUBSTRUCTURE
     1 <0>         1 TEMP              0 ****  ****    0 ROOT


##########                                Name:    ZINC000512239524
##########                DOCK_Rotatable_Bonds:                   9
##########                         Heavy_Atoms:                  31
##########                    Molecular_Weight:             424.518
##########                DOCK_Rotatable_Bonds:                   9
##########                       Formal_Charge:          0.00999919
##########                     HBond_Acceptors:                   7
##########                        HBond_Donors:                   1
##########                         Heavy_Atoms:                  31
##########                          Grid_Score:          -29.866182
##########                     Grid_vdw_energy:          -28.866362
##########                      Grid_es_energy:           -0.999820
##########           Internal_energy_repulsive:           29.020308

@<TRIPOS>MOLECULE
ZINC000512239524
 60 63 1 0 0
SMALL
USER_CHARGES


@<TRIPOS>ATOM
      1 C1        -12.8664   -1.2968   60.4587 C.3     1  ZINC000512239524   -0.1600
      2 C2        -12.2349   -1.5207   59.0832 C.3     1  ZINC000512239524    0.2000
      3 H3        -13.0158   -1.7471   58.3574 H       1  ZINC000512239524    0.1100
      4 N4        -11.5210   -0.3098   58.6707 N.am    1  ZINC000512239524   -0.7400
      5 C5        -11.5170    0.0619   57.3753 C.2     1  ZINC000512239524    0.7100
      6 O6        -12.1060   -0.6079   56.5488 O.2     1  ZINC000512239524   -0.5800
      7 N7        -10.8602    1.1760   56.9958 N.am    1  ZINC000512239524   -0.6300
      8 C8        -10.1391    1.9923   57.9819 C.3     1  ZINC000512239524    0.1300
      9 C9         -8.6948    2.1786   57.5060 C.3     1  ZINC000512239524   -0.1100
     10 C10        -8.6995    2.7610   56.0907 C.3     1  ZINC000512239524   -0.1000
     11 C11        -7.2803    2.9774   55.6323 C.2     1  ZINC000512239524    0.5300
     12 O12        -6.4074    2.2097   55.9784 O.2     1  ZINC000512239524   -0.5300
     13 N13        -6.9810    4.0241   54.8377 N.am    1  ZINC000512239524   -0.5800
     14 C14        -5.6017    4.2334   54.3906 C.3     1  ZINC000512239524    0.1500
     15 C15        -5.3414    3.4047   53.1591 C.ar    1  ZINC000512239524   -0.1100
     16 C16        -4.0555    2.9937   52.8618 C.ar    1  ZINC000512239524   -0.0900
     17 C17        -3.8168    2.2335   51.7322 C.ar    1  ZINC000512239524   -0.1200
     18 C18        -4.8640    1.8840   50.9002 C.ar    1  ZINC000512239524   -0.1100
     19 C19        -6.1500    2.2943   51.1981 C.ar    1  ZINC000512239524   -0.1200
     20 C20        -6.3894    3.0508   52.3300 C.ar    1  ZINC000512239524   -0.1100
     21 C21        -8.0350    4.9523   54.4210 C.3     1  ZINC000512239524    0.0700
     22 C22        -8.4498    6.0412   55.4124 C.3     1  ZINC000512239524   -0.1900
     23 C23        -7.6358    6.4078   54.1700 C.3     1  ZINC000512239524   -0.2000
     24 C24        -9.3998    1.7880   55.1393 C.3     1  ZINC000512239524   -0.1400
     25 C25       -10.8469    1.5940   55.5873 C.3     1  ZINC000512239524    0.1100
     26 C26       -11.2675   -2.6739   59.1564 C.ar    1  ZINC000512239524   -0.0800
     27 C27       -10.1477   -2.6101   59.9706 C.ar    1  ZINC000512239524   -0.1400
     28 C28        -9.2826   -3.6875   60.0126 C.ar    1  ZINC000512239524    0.1000
     29 N29        -9.5116   -4.7664   59.2901 N.ar    1  ZINC000512239524   -0.4600
     30 C30       -10.5658   -4.8641   58.5039 C.ar    1  ZINC000512239524    0.0800
     31 C31       -11.4795   -3.8284   58.4141 C.ar    1  ZINC000512239524    0.0600
     32 F32       -12.5576   -3.9347   57.6068 F       1  ZINC000512239524   -0.1200
     33 H33       -13.5661   -0.4628   60.4058 H       1  ZINC000512239524    0.0700
     34 H34       -13.3977   -2.1979   60.7656 H       1  ZINC000512239524    0.0700
     35 H35       -12.0855   -1.0704   61.1845 H       1  ZINC000512239524    0.0600
     36 H36       -11.0511    0.2245   59.3301 H       1  ZINC000512239524    0.3900
     37 H37       -10.6219    2.9651   58.0740 H       1  ZINC000512239524    0.0700
     38 H38       -10.1433    1.4870   58.9477 H       1  ZINC000512239524    0.1000
     39 H39        -8.1754    2.8612   58.1786 H       1  ZINC000512239524    0.0900
     40 H40        -8.1862    1.2146   57.5012 H       1  ZINC000512239524    0.0800
     41 H41        -9.2301    3.7131   56.0915 H       1  ZINC000512239524    0.1000
     42 H42        -5.4513    5.2876   54.1575 H       1  ZINC000512239524    0.0900
     43 H43        -4.9140    3.9346   55.1817 H       1  ZINC000512239524    0.1000
     44 H44        -3.2374    3.2667   53.5117 H       1  ZINC000512239524    0.1300
     45 H45        -2.8121    1.9129   51.4994 H       1  ZINC000512239524    0.1200
     46 H46        -4.6774    1.2906   50.0173 H       1  ZINC000512239524    0.1200
     47 H47        -6.9681    2.0214   50.5480 H       1  ZINC000512239524    0.1200
     48 H48        -7.3941    3.3713   52.5628 H       1  ZINC000512239524    0.1200
     49 H49        -8.8120    4.5269   53.7859 H       1  ZINC000512239524    0.1300
     50 H50        -9.5001    6.3323   55.4299 H       1  ZINC000512239524    0.1100
     51 H51        -7.9386    6.0669   56.3747 H       1  ZINC000512239524    0.1000
     52 H52        -6.5890    6.6747   54.3149 H       1  ZINC000512239524    0.1100
     53 H53        -8.1504    6.9401   53.3700 H       1  ZINC000512239524    0.1000
     54 H54        -9.3821    2.1926   54.1273 H       1  ZINC000512239524    0.0900
     55 H55        -8.8844    0.8277   55.1567 H       1  ZINC000512239524    0.0700
     56 H56       -11.3200    0.8279   54.9730 H       1  ZINC000512239524    0.0800
     57 H57       -11.3900    2.5336   55.4860 H       1  ZINC000512239524    0.0800
     58 H58        -9.9532   -1.7294   60.5647 H       1  ZINC000512239524    0.1400
     59 H59        -8.4079   -3.6448   60.6448 H       1  ZINC000512239524    0.1700
     60 H60       -10.7199   -5.7638   57.9267 H       1  ZINC000512239524    0.1700
@<TRIPOS>BOND
     1     1     2    1
     2     1    33    1
     3     1    34    1
     4     1    35    1
     5     2     3    1
     6     2     4    1
     7     2    26    1
     8     4     5   am
     9     4    36    1
    10     5     6    2
    11     5     7   am
    12     7    25    1
    13     7     8    1
    14     8     9    1
    15     8    37    1
    16     8    38    1
    17     9    10    1
    18     9    39    1
    19     9    40    1
    20    10    11    1
    21    10    24    1
    22    10    41    1
    23    11    12    2
    24    11    13   am
    25    13    14    1
    26    13    21    1
    27    14    15    1
    28    14    42    1
    29    14    43    1
    30    15    20   ar
    31    15    16   ar
    32    16    17   ar
    33    16    44    1
    34    17    18   ar
    35    17    45    1
    36    18    19   ar
    37    18    46    1
    38    19    20   ar
    39    19    47    1
    40    20    48    1
    41    21    23    1
    42    21    22    1
    43    21    49    1
    44    22    23    1
    45    22    50    1
    46    22    51    1
    47    23    52    1
    48    23    53    1
    49    24    25    1
    50    24    54    1
    51    24    55    1
    52    25    56    1
    53    25    57    1
    54    26    31   ar
    55    26    27   ar
    56    27    28   ar
    57    27    58    1
    58    28    29   ar
    59    28    59    1
    60    29    30   ar
    61    30    31   ar
    62    30    60    1
    63    31    32    1
@<TRIPOS>SUBSTRUCTURE
     1 ZINC000512239524        1 TEMP              0 ****  ****    0 ROOT


##########                                Name:    ZINC001060733018
##########                DOCK_Rotatable_Bonds:                   7
##########                         Heavy_Atoms:                  24
##########                    Molecular_Weight:             342.429
##########                DOCK_Rotatable_Bonds:                   7
##########                       Formal_Charge:           0.0200001
##########                     HBond_Acceptors:                   6
##########                        HBond_Donors:                   2
##########                         Heavy_Atoms:                  24
##########                          Grid_Score:          -29.845070
##########                     Grid_vdw_energy:          -28.357586
##########                      Grid_es_energy:           -1.487484
##########           Internal_energy_repulsive:            6.103025

@<TRIPOS>MOLECULE
ZINC001060733018
 52 54 1 0 0
SMALL
USER_CHARGES


@<TRIPOS>ATOM
      1 O1        -14.2065   -1.8746   48.1096 O.2     1  ZINC001060733018   -0.5000
      2 C2        -14.3906   -0.8551   48.7402 C.2     1  ZINC001060733018    0.4700
      3 N3        -14.2409   -0.8550   50.0797 N.am    1  ZINC001060733018   -0.7100
      4 C4        -13.8599   -2.0872   50.7744 C.3     1  ZINC001060733018    0.1200
      5 C5        -13.0185   -1.7402   52.0041 C.3     1  ZINC001060733018   -0.1000
      6 H6        -12.2078   -1.0723   51.7129 H       1  ZINC001060733018    0.0800
      7 C7        -13.8997   -1.0487   53.0464 C.3     1  ZINC001060733018   -0.1100
      8 C8        -13.0582   -0.7016   54.2762 C.3     1  ZINC001060733018   -0.1300
      9 C9        -12.4735   -1.9836   54.8724 C.3     1  ZINC001060733018    0.1400
     10 H10       -13.2842   -2.6516   55.1636 H       1  ZINC001060733018    0.0900
     11 N11       -11.6679   -1.6513   56.0500 N.am    1  ZINC001060733018   -0.7300
     12 C12       -11.8761   -2.2987   57.2136 C.2     1  ZINC001060733018    0.5200
     13 O13       -12.7295   -3.1575   57.2854 O.2     1  ZINC001060733018   -0.5400
     14 C14       -11.0485   -1.9556   58.4253 C.3     1  ZINC001060733018   -0.1000
     15 H15       -10.3720   -1.1359   58.1831 H       1  ZINC001060733018    0.1000
     16 C16       -10.2354   -3.1792   58.8508 C.3     1  ZINC001060733018   -0.1100
     17 C17        -9.3370   -2.8187   60.0347 C.3     1  ZINC001060733018   -0.1200
     18 C18       -10.2058   -2.4241   61.2330 C.3     1  ZINC001060733018   -0.0800
     19 C19       -11.1251   -1.2708   60.8202 C.3     1  ZINC001060733018   -0.1300
     20 C20       -10.6236    0.1544   61.0512 C.3     1  ZINC001060733018   -0.1700
     21 C21       -11.7382   -0.4176   61.9298 C.3     1  ZINC001060733018   -0.1700
     22 C22       -11.9724   -1.5333   59.5718 C.3     1  ZINC001060733018   -0.0600
     23 C23       -11.5924   -2.6752   53.8302 C.3     1  ZINC001060733018   -0.1200
     24 C24       -12.4339   -3.0222   52.6004 C.3     1  ZINC001060733018   -0.1100
     25 C25       -14.7807    0.4129   48.0255 C.3     1  ZINC001060733018    0.2600
     26 F26       -15.4587    0.0928   46.8444 F       1  ZINC001060733018   -0.1700
     27 F27       -15.6151    1.1752   48.8501 F       1  ZINC001060733018   -0.1900
     28 H28       -14.3854   -0.0389   50.5838 H       1  ZINC001060733018    0.4100
     29 H29       -14.7577   -2.6205   51.0870 H       1  ZINC001060733018    0.0800
     30 H30       -13.2781   -2.7182   50.1023 H       1  ZINC001060733018    0.0800
     31 H31       -14.3161   -0.1354   52.6216 H       1  ZINC001060733018    0.0700
     32 H32       -14.7103   -1.7166   53.3375 H       1  ZINC001060733018    0.0700
     33 H33       -13.6859   -0.2090   55.0187 H       1  ZINC001060733018    0.0700
     34 H34       -12.2476   -0.0337   53.9850 H       1  ZINC001060733018    0.0600
     35 H35       -10.9844   -0.9653   55.9922 H       1  ZINC001060733018    0.4000
     36 H36       -10.9136   -3.9814   59.1416 H       1  ZINC001060733018    0.0700
     37 H37        -9.6177   -3.5115   58.0165 H       1  ZINC001060733018    0.0700
     38 H38        -8.7220   -3.6789   60.2993 H       1  ZINC001060733018    0.0700
     39 H39        -8.6935   -1.9825   59.7613 H       1  ZINC001060733018    0.0700
     40 H40       -10.8081   -3.2777   61.5440 H       1  ZINC001060733018    0.0700
     41 H41        -9.5680   -2.1055   62.0574 H       1  ZINC001060733018    0.0700
     42 H42        -9.6386    0.2746   61.5023 H       1  ZINC001060733018    0.0900
     43 H43       -10.8998    0.9106   60.3163 H       1  ZINC001060733018    0.0900
     44 H44       -12.7478   -0.0378   61.7730 H       1  ZINC001060733018    0.0900
     45 H45       -11.4869   -0.6740   62.9590 H       1  ZINC001060733018    0.0900
     46 H46       -12.5059   -0.6240   59.2948 H       1  ZINC001060733018    0.0700
     47 H47       -12.6875   -2.3301   59.7768 H       1  ZINC001060733018    0.0800
     48 H48       -11.1758   -3.5885   54.2550 H       1  ZINC001060733018    0.0700
     49 H49       -10.7817   -2.0073   53.5390 H       1  ZINC001060733018    0.0700
     50 H50       -13.2445   -3.6902   52.8915 H       1  ZINC001060733018    0.0700
     51 H51       -11.8061   -3.5149   51.8579 H       1  ZINC001060733018    0.0700
     52 H52       -13.8847    0.9856   47.7864 H       1  ZINC001060733018    0.1400
@<TRIPOS>BOND
     1     1     2    2
     2     2     3   am
     3     2    25    1
     4     3     4    1
     5     3    28    1
     6     4     5    1
     7     4    29    1
     8     4    30    1
     9     5     6    1
    10     5    24    1
    11     5     7    1
    12     7     8    1
    13     7    31    1
    14     7    32    1
    15     8     9    1
    16     8    33    1
    17     8    34    1
    18     9    10    1
    19     9    11    1
    20     9    23    1
    21    11    12   am
    22    11    35    1
    23    12    13    2
    24    12    14    1
    25    14    15    1
    26    14    22    1
    27    14    16    1
    28    16    17    1
    29    16    36    1
    30    16    37    1
    31    17    18    1
    32    17    38    1
    33    17    39    1
    34    18    19    1
    35    18    40    1
    36    18    41    1
    37    19    21    1
    38    19    20    1
    39    19    22    1
    40    20    21    1
    41    20    42    1
    42    20    43    1
    43    21    44    1
    44    21    45    1
    45    22    46    1
    46    22    47    1
    47    23    24    1
    48    23    48    1
    49    23    49    1
    50    24    50    1
    51    24    51    1
    52    25    26    1
    53    25    27    1
    54    25    52    1
@<TRIPOS>SUBSTRUCTURE
     1 ZINC001060733018        1 TEMP              0 ****  ****    0 ROOT


##########                                Name:    ZINC001282645012
##########                DOCK_Rotatable_Bonds:                   9
##########                         Heavy_Atoms:                  27
##########                    Molecular_Weight:             372.511
##########                DOCK_Rotatable_Bonds:                   9
##########                       Formal_Charge:          -0.0200004
##########                     HBond_Acceptors:                   6
##########                        HBond_Donors:                   1
##########                         Heavy_Atoms:                  27
##########                          Grid_Score:          -29.792166
##########                     Grid_vdw_energy:          -29.776630
##########                      Grid_es_energy:           -0.015535
##########           Internal_energy_repulsive:           33.240498

@<TRIPOS>MOLECULE
ZINC001282645012
 59 61 1 0 0
SMALL
USER_CHARGES


@<TRIPOS>ATOM
      1 C1          1.7113    3.4665   46.6442 C.2     1  ZINC001282645012   -0.1900
      2 C2          1.1239    2.5858   45.8725 C.2     1  ZINC001282645012   -0.1300
      3 C3         -0.0043    3.0101   44.9680 C.3     1  ZINC001282645012   -0.0500
      4 C4          0.4823    4.1169   44.0304 C.3     1  ZINC001282645012   -0.1500
      5 C5         -0.4736    1.8111   44.1413 C.3     1  ZINC001282645012   -0.1400
      6 C6         -1.1497    3.5249   45.8011 C.2     1  ZINC001282645012    0.5500
      7 O7         -1.6456    4.6028   45.5501 O.2     1  ZINC001282645012   -0.5300
      8 N8         -1.6230    2.7874   46.8251 N.am    1  ZINC001282645012   -0.6300
      9 C9         -1.2009    1.4423   47.3445 C.3     1  ZINC001282645012    0.1200
     10 H10        -0.3779    0.9644   46.8133 H       1  ZINC001282645012    0.1300
     11 C11        -2.5559    0.6729   47.3172 C.3     1  ZINC001282645012   -0.1300
     12 C12        -3.6010    1.7730   47.6264 C.3     1  ZINC001282645012   -0.1300
     13 C13        -2.7308    3.0602   47.8026 C.3     1  ZINC001282645012    0.1200
     14 H14        -3.2575    4.0056   47.6718 H       1  ZINC001282645012    0.1200
     15 C15        -2.0086    2.8767   49.1714 C.3     1  ZINC001282645012    0.1300
     16 H16        -1.5168    3.8014   49.4731 H       1  ZINC001282645012    0.1000
     17 N17        -2.9555    2.4385   50.1998 N.am    1  ZINC001282645012   -0.7100
     18 C18        -3.2600    3.2554   51.2276 C.2     1  ZINC001282645012    0.5100
     19 O19        -2.7490    4.3527   51.3019 O.2     1  ZINC001282645012   -0.5100
     20 C20        -4.2354    2.8052   52.2845 C.3     1  ZINC001282645012    0.1200
     21 H21        -3.7620    2.0577   52.9210 H       1  ZINC001282645012    0.1300
     22 C22        -4.6567    4.0058   53.1342 C.3     1  ZINC001282645012   -0.1100
     23 C23        -5.4733    3.5203   54.3335 C.3     1  ZINC001282645012   -0.1000
     24 C24        -4.5278    2.9910   55.4136 C.3     1  ZINC001282645012   -0.1500
     25 C25        -6.2918    4.6833   54.8976 C.3     1  ZINC001282645012   -0.1500
     26 N26        -5.4165    2.2226   51.6426 N.pl3   1  ZINC001282645012   -0.4500
     27 C27        -5.5257    0.9535   51.1417 C.2     1  ZINC001282645012   -0.0600
     28 C28        -6.7723    0.8362   50.6461 C.2     1  ZINC001282645012   -0.0200
     29 N29        -7.4069    2.0020   50.8388 N.2     1  ZINC001282645012   -0.4900
     30 C30        -6.6026    2.8355   51.4398 C.2     1  ZINC001282645012    0.1900
     31 C31        -0.9322    1.7722   48.8439 C.3     1  ZINC001282645012   -0.1400
     32 H32         1.3870    4.4966   46.6321 H       1  ZINC001282645012    0.1000
     33 H33         2.5168    3.1616   47.2957 H       1  ZINC001282645012    0.1000
     34 H34         1.4481    1.5557   45.8846 H       1  ZINC001282645012    0.1100
     35 H35         1.3107    3.7445   43.4278 H       1  ZINC001282645012    0.0700
     36 H36        -0.3338    4.4237   43.3761 H       1  ZINC001282645012    0.0700
     37 H37         0.8166    4.9710   44.6193 H       1  ZINC001282645012    0.0600
     38 H38        -0.8202    1.0226   44.8092 H       1  ZINC001282645012    0.0600
     39 H39        -1.2896    2.1180   43.4870 H       1  ZINC001282645012    0.0700
     40 H40         0.3548    1.4387   43.5387 H       1  ZINC001282645012    0.0700
     41 H41        -2.7326    0.2415   46.3319 H       1  ZINC001282645012    0.0800
     42 H42        -2.5739   -0.1005   48.0850 H       1  ZINC001282645012    0.0800
     43 H43        -4.2959    1.8870   46.7945 H       1  ZINC001282645012    0.0700
     44 H44        -4.1372    1.5451   48.5475 H       1  ZINC001282645012    0.0800
     45 H45        -3.3633    1.5603   50.1409 H       1  ZINC001282645012    0.4000
     46 H46        -3.7689    4.5303   53.4874 H       1  ZINC001282645012    0.0900
     47 H47        -5.2630    4.6824   52.5318 H       1  ZINC001282645012    0.0800
     48 H48        -6.1455    2.7230   54.0166 H       1  ZINC001282645012    0.0700
     49 H49        -3.8555    3.7883   55.7306 H       1  ZINC001282645012    0.0600
     50 H50        -5.1095    2.6451   56.2680 H       1  ZINC001282645012    0.0600
     51 H51        -3.9446    2.1624   55.0117 H       1  ZINC001282645012    0.0500
     52 H52        -7.0246    5.0047   54.1573 H       1  ZINC001282645012    0.0600
     53 H53        -6.8069    4.3601   55.8022 H       1  ZINC001282645012    0.0600
     54 H54        -5.6271    5.5139   55.1351 H       1  ZINC001282645012    0.0600
     55 H55        -4.7594    0.1924   51.1435 H       1  ZINC001282645012    0.1700
     56 H56        -7.1883   -0.0425   50.1756 H       1  ZINC001282645012    0.1700
     57 H57        -6.8434    3.8498   51.7222 H       1  ZINC001282645012    0.2000
     58 H58        -1.1002    0.8810   49.4485 H       1  ZINC001282645012    0.0900
     59 H59         0.0747    2.1590   49.0000 H       1  ZINC001282645012    0.0900
@<TRIPOS>BOND
     1     1     2    2
     2     1    32    1
     3     1    33    1
     4     2     3    1
     5     2    34    1
     6     3     4    1
     7     3     5    1
     8     3     6    1
     9     4    35    1
    10     4    36    1
    11     4    37    1
    12     5    38    1
    13     5    39    1
    14     5    40    1
    15     6     7    2
    16     6     8   am
    17     8    13    1
    18     8     9    1
    19     9    10    1
    20     9    31    1
    21     9    11    1
    22    11    12    1
    23    11    41    1
    24    11    42    1
    25    12    13    1
    26    12    43    1
    27    12    44    1
    28    13    14    1
    29    13    15    1
    30    15    16    1
    31    15    17    1
    32    15    31    1
    33    17    18   am
    34    17    45    1
    35    18    19    2
    36    18    20    1
    37    20    21    1
    38    20    22    1
    39    20    26    1
    40    22    23    1
    41    22    46    1
    42    22    47    1
    43    23    24    1
    44    23    25    1
    45    23    48    1
    46    24    49    1
    47    24    50    1
    48    24    51    1
    49    25    52    1
    50    25    53    1
    51    25    54    1
    52    26    30    1
    53    26    27    1
    54    27    28    2
    55    27    55    1
    56    28    29    1
    57    28    56    1
    58    29    30    2
    59    30    57    1
    60    31    58    1
    61    31    59    1
@<TRIPOS>SUBSTRUCTURE
     1 ZINC001282645012        1 TEMP              0 ****  ****    0 ROOT


##########                                Name:    ZINC000653668607
##########                DOCK_Rotatable_Bonds:                   5
##########                         Heavy_Atoms:                  28
##########                    Molecular_Weight:             379.459
##########                DOCK_Rotatable_Bonds:                   5
##########                       Formal_Charge:          0.00999918
##########                     HBond_Acceptors:                   6
##########                        HBond_Donors:                   2
##########                         Heavy_Atoms:                  28
##########                          Grid_Score:          -29.673370
##########                     Grid_vdw_energy:          -29.393576
##########                      Grid_es_energy:           -0.279794
##########           Internal_energy_repulsive:           13.379174

@<TRIPOS>MOLECULE
ZINC000653668607
 53 56 1 0 0
SMALL
USER_CHARGES


@<TRIPOS>ATOM
      1 C1        -16.4306   -1.3416   58.2600 C.3     1  ZINC000653668607    0.0300
      2 O2        -16.4050   -2.5388   57.4802 O.3     1  ZINC000653668607   -0.3200
      3 C3        -15.5580   -2.5652   56.4179 C.ar    1  ZINC000653668607    0.1300
      4 C4        -15.8655   -1.8601   55.2634 C.ar    1  ZINC000653668607   -0.2000
      5 C5        -14.9979   -1.8912   54.1922 C.ar    1  ZINC000653668607   -0.0800
      6 C6        -13.8184   -2.6219   54.2579 C.ar    1  ZINC000653668607   -0.1000
      7 C7        -12.9118   -2.5979   53.0549 C.3     1  ZINC000653668607   -0.0800
      8 C8        -11.9146   -3.7534   53.1105 C.3     1  ZINC000653668607   -0.1200
      9 C9        -11.2313   -3.7371   54.4830 C.3     1  ZINC000653668607   -0.1100
     10 C10       -12.2575   -4.1478   55.5369 C.3     1  ZINC000653668607   -0.0600
     11 H11       -12.5014   -5.2024   55.4093 H       1  ZINC000653668607    0.1000
     12 C12       -11.6723   -3.9357   56.9094 C.2     1  ZINC000653668607    0.5200
     13 O13       -11.6460   -4.8504   57.7054 O.2     1  ZINC000653668607   -0.5100
     14 N14       -11.1782   -2.7296   57.2523 N.am    1  ZINC000653668607   -0.6700
     15 C15       -10.6349   -2.5327   58.5266 C.ar    1  ZINC000653668607    0.1500
     16 C16        -9.6952   -3.4248   59.0272 C.ar    1  ZINC000653668607   -0.1100
     17 C17        -9.1582   -3.2311   60.2856 C.ar    1  ZINC000653668607   -0.0900
     18 C18        -9.5537   -2.1503   61.0496 C.ar    1  ZINC000653668607   -0.1200
     19 C19       -10.4935   -1.2546   60.5548 C.ar    1  ZINC000653668607    0.1700
     20 N20       -10.8940   -0.1602   61.3296 N.am    1  ZINC000653668607   -0.5800
     21 C21       -11.4367   -0.3904   62.6694 C.3     1  ZINC000653668607    0.1100
     22 C22       -11.1273    0.8230   63.5526 C.3     1  ZINC000653668607   -0.1500
     23 C23       -11.6812    2.0778   62.8691 C.3     1  ZINC000653668607    0.1100
     24 N24       -11.1252    2.1741   61.5184 N.am    1  ZINC000653668607   -0.7400
     25 C25       -10.7676    1.0789   60.8314 C.2     1  ZINC000653668607    0.7100
     26 O26       -10.3206    1.2140   59.7088 O.2     1  ZINC000653668607   -0.5800
     27 C27       -11.0299   -1.4428   59.2893 C.ar    1  ZINC000653668607   -0.1300
     28 C28       -13.5136   -3.3274   55.4011 C.ar    1  ZINC000653668607   -0.0300
     29 C29       -14.3809   -3.2914   56.4841 C.ar    1  ZINC000653668607   -0.1500
     30 H30       -15.4387   -1.1547   58.6716 H       1  ZINC000653668607    0.0600
     31 H31       -16.7261   -0.5032   57.6291 H       1  ZINC000653668607    0.0600
     32 H32       -17.1467   -1.4535   59.0742 H       1  ZINC000653668607    0.1000
     33 H33       -16.7806   -1.2898   55.2037 H       1  ZINC000653668607    0.1300
     34 H34       -15.2378   -1.3423   53.2936 H       1  ZINC000653668607    0.1300
     35 H35       -13.5132   -2.6855   52.1499 H       1  ZINC000653668607    0.0800
     36 H36       -12.3673   -1.6539   53.0339 H       1  ZINC000653668607    0.0800
     37 H37       -12.4398   -4.6986   52.9731 H       1  ZINC000653668607    0.0700
     38 H38       -11.1670   -3.6310   52.3268 H       1  ZINC000653668607    0.0800
     39 H39       -10.3990   -4.4410   54.4870 H       1  ZINC000653668607    0.0700
     40 H40       -10.8649   -2.7334   54.6988 H       1  ZINC000653668607    0.0800
     41 H41       -11.1991   -1.9981   56.6157 H       1  ZINC000653668607    0.4100
     42 H42        -9.3843   -4.2710   58.4324 H       1  ZINC000653668607    0.1400
     43 H43        -8.4280   -3.9263   60.6727 H       1  ZINC000653668607    0.1300
     44 H44        -9.1322   -2.0015   62.0327 H       1  ZINC000653668607    0.1200
     45 H45       -12.5159   -0.5294   62.6063 H       1  ZINC000653668607    0.0700
     46 H46       -10.9783   -1.2807   63.1000 H       1  ZINC000653668607    0.0900
     47 H47       -11.6008    0.6973   64.5262 H       1  ZINC000653668607    0.1000
     48 H48       -10.0487    0.9198   63.6768 H       1  ZINC000653668607    0.0800
     49 H49       -12.7677    2.0119   62.8120 H       1  ZINC000653668607    0.0700
     50 H50       -11.3985    2.9602   63.4432 H       1  ZINC000653668607    0.0900
     51 H51       -11.0094    3.0478   61.1134 H       1  ZINC000653668607    0.4200
     52 H52       -11.7603   -0.7478   58.9024 H       1  ZINC000653668607    0.1300
     53 H53       -14.1383   -3.8380   57.3834 H       1  ZINC000653668607    0.1200
@<TRIPOS>BOND
     1     1     2    1
     2     1    30    1
     3     1    31    1
     4     1    32    1
     5     2     3    1
     6     3    29   ar
     7     3     4   ar
     8     4     5   ar
     9     4    33    1
    10     5     6   ar
    11     5    34    1
    12     6    28   ar
    13     6     7    1
    14     7     8    1
    15     7    35    1
    16     7    36    1
    17     8     9    1
    18     8    37    1
    19     8    38    1
    20     9    10    1
    21     9    39    1
    22     9    40    1
    23    10    11    1
    24    10    12    1
    25    10    28    1
    26    12    13    2
    27    12    14   am
    28    14    15    1
    29    14    41    1
    30    15    27   ar
    31    15    16   ar
    32    16    17   ar
    33    16    42    1
    34    17    18   ar
    35    17    43    1
    36    18    19   ar
    37    18    44    1
    38    19    20    1
    39    19    27   ar
    40    20    25   am
    41    20    21    1
    42    21    22    1
    43    21    45    1
    44    21    46    1
    45    22    23    1
    46    22    47    1
    47    22    48    1
    48    23    24    1
    49    23    49    1
    50    23    50    1
    51    24    25   am
    52    24    51    1
    53    25    26    2
    54    27    52    1
    55    28    29   ar
    56    29    53    1
@<TRIPOS>SUBSTRUCTURE
     1 ZINC000653668607        1 TEMP              0 ****  ****    0 ROOT


##########                                Name:    ZINC000648570180
##########                DOCK_Rotatable_Bonds:                   4
##########                         Heavy_Atoms:                  25
##########                    Molecular_Weight:             342.484
##########                DOCK_Rotatable_Bonds:                   4
##########                       Formal_Charge:          0.00999971
##########                     HBond_Acceptors:                   5
##########                        HBond_Donors:                   0
##########                         Heavy_Atoms:                  25
##########                          Grid_Score:          -29.668001
##########                     Grid_vdw_energy:          -27.837605
##########                      Grid_es_energy:           -1.830396
##########           Internal_energy_repulsive:           85.193848

@<TRIPOS>MOLECULE
ZINC000648570180
 55 58 1 0 0
SMALL
USER_CHARGES


@<TRIPOS>ATOM
      1 C1        -10.9835   -0.2444   53.7777 C.3     1  ZINC000648570180   -0.1500
      2 C2        -12.0895   -1.2188   53.3674 C.3     1  ZINC000648570180   -0.0600
      3 C3        -13.3334   -0.4439   52.9277 C.3     1  ZINC000648570180   -0.1400
      4 C4        -11.5969   -2.1247   52.2201 C.3     1  ZINC000648570180   -0.1200
      5 C5        -12.2317   -3.5040   52.5261 C.3     1  ZINC000648570180   -0.1300
      6 C6        -12.1419   -3.5867   54.0702 C.3     1  ZINC000648570180   -0.1200
      7 C7        -12.4360   -2.1483   54.5437 C.3     1  ZINC000648570180   -0.0700
      8 H8        -13.4906   -2.0480   54.8007 H       1  ZINC000648570180    0.0800
      9 C9        -11.5670   -1.8076   55.7560 C.3     1  ZINC000648570180   -0.1000
     10 H10       -10.5420   -1.5951   55.4519 H       1  ZINC000648570180    0.1000
     11 C11       -12.1674   -0.6207   56.5548 C.3     1  ZINC000648570180   -0.1400
     12 C12       -11.6338   -0.8601   57.9829 C.3     1  ZINC000648570180    0.1200
     13 N13       -11.2921   -2.2862   58.0878 N.am    1  ZINC000648570180   -0.6000
     14 C14       -10.7743   -2.8920   59.1747 C.2     1  ZINC000648570180    0.5800
     15 O15       -10.5289   -4.0814   59.1481 O.2     1  ZINC000648570180   -0.5200
     16 C16       -10.5038   -2.1055   60.4047 C.ar    1  ZINC000648570180    0.1600
     17 C17        -9.3632   -2.3544   61.1675 C.ar    1  ZINC000648570180   -0.2000
     18 C18        -9.1527   -1.5931   62.3091 C.ar    1  ZINC000648570180    0.1800
     19 N19       -10.0321   -0.6631   62.6359 N.ar    1  ZINC000648570180   -0.5400
     20 C20       -11.1077   -0.4495   61.8905 C.ar    1  ZINC000648570180    0.4800
     21 N21       -12.0048    0.5348   62.2682 N.3     1  ZINC000648570180   -0.4400
     22 C22       -12.1882    0.5509   63.7421 C.3     1  ZINC000648570180    0.0500
     23 C23       -12.7537    1.9677   64.0135 C.3     1  ZINC000648570180   -0.1200
     24 C24       -11.9792    2.8478   63.0058 C.3     1  ZINC000648570180   -0.1300
     25 C25       -11.4999    1.8780   61.9100 C.3     1  ZINC000648570180    0.0400
     26 N26       -11.3433   -1.1488   60.7928 N.ar    1  ZINC000648570180   -0.5000
     27 C27       -11.6099   -2.9446   56.8071 C.3     1  ZINC000648570180    0.1100
     28 H28       -10.1435   -0.8018   54.1922 H       1  ZINC000648570180    0.0600
     29 H29       -10.6514    0.3168   52.9042 H       1  ZINC000648570180    0.0500
     30 H30       -11.3675    0.4459   54.5287 H       1  ZINC000648570180    0.0700
     31 H31       -13.0806    0.2021   52.0868 H       1  ZINC000648570180    0.0500
     32 H32       -14.1107   -1.1459   52.6258 H       1  ZINC000648570180    0.0500
     33 H33       -13.6949    0.1639   53.7570 H       1  ZINC000648570180    0.0500
     34 H34       -11.9475   -1.7480   51.2593 H       1  ZINC000648570180    0.0600
     35 H35       -10.5092   -2.1947   52.2296 H       1  ZINC000648570180    0.0700
     36 H36       -13.2706   -3.5326   52.1974 H       1  ZINC000648570180    0.0700
     37 H37       -11.6564   -4.3054   52.0623 H       1  ZINC000648570180    0.0700
     38 H38       -12.8903   -4.2769   54.4594 H       1  ZINC000648570180    0.0700
     39 H39       -11.1423   -3.8929   54.3783 H       1  ZINC000648570180    0.0700
     40 H40       -11.8064    0.3301   56.1626 H       1  ZINC000648570180    0.0900
     41 H41       -13.2567   -0.6570   56.5389 H       1  ZINC000648570180    0.0800
     42 H42       -10.7451   -0.2525   58.1533 H       1  ZINC000648570180    0.0800
     43 H43       -12.4030   -0.6086   58.7130 H       1  ZINC000648570180    0.0700
     44 H44        -8.6605   -3.1215   60.8772 H       1  ZINC000648570180    0.1600
     45 H45        -8.2799   -1.7594   62.9232 H       1  ZINC000648570180    0.1800
     46 H46       -12.9018   -0.2136   64.0493 H       1  ZINC000648570180    0.1000
     47 H47       -11.2336    0.4138   64.2500 H       1  ZINC000648570180    0.0500
     48 H48       -13.8242    2.0008   63.8115 H       1  ZINC000648570180    0.0800
     49 H49       -12.5434    2.2772   65.0372 H       1  ZINC000648570180    0.0800
     50 H50       -12.6382    3.6043   62.5797 H       1  ZINC000648570180    0.0800
     51 H51       -11.1259    3.3196   63.4932 H       1  ZINC000648570180    0.0700
     52 H52       -10.4106    1.8676   61.8738 H       1  ZINC000648570180    0.0900
     53 H53       -11.9032    2.1808   60.9437 H       1  ZINC000648570180    0.0900
     54 H54       -12.6050   -3.3877   56.8451 H       1  ZINC000648570180    0.0700
     55 H55       -10.8638   -3.7048   56.5759 H       1  ZINC000648570180    0.0800
@<TRIPOS>BOND
     1     1     2    1
     2     1    28    1
     3     1    29    1
     4     1    30    1
     5     2     7    1
     6     2     3    1
     7     2     4    1
     8     3    31    1
     9     3    32    1
    10     3    33    1
    11     4     5    1
    12     4    34    1
    13     4    35    1
    14     5     6    1
    15     5    36    1
    16     5    37    1
    17     6     7    1
    18     6    38    1
    19     6    39    1
    20     7     8    1
    21     7     9    1
    22     9    10    1
    23     9    27    1
    24     9    11    1
    25    11    12    1
    26    11    40    1
    27    11    41    1
    28    12    13    1
    29    12    42    1
    30    12    43    1
    31    13    14   am
    32    13    27    1
    33    14    15    2
    34    14    16    1
    35    16    26   ar
    36    16    17   ar
    37    17    18   ar
    38    17    44    1
    39    18    19   ar
    40    18    45    1
    41    19    20   ar
    42    20    21    1
    43    20    26   ar
    44    21    25    1
    45    21    22    1
    46    22    23    1
    47    22    46    1
    48    22    47    1
    49    23    24    1
    50    23    48    1
    51    23    49    1
    52    24    25    1
    53    24    50    1
    54    24    51    1
    55    25    52    1
    56    25    53    1
    57    27    54    1
    58    27    55    1
@<TRIPOS>SUBSTRUCTURE
     1 ZINC000648570180        1 TEMP              0 ****  ****    0 ROOT


##########                                Name:    ZINC001010141213
##########                DOCK_Rotatable_Bonds:                   4
##########                         Heavy_Atoms:                  24
##########                    Molecular_Weight:             330.346
##########                DOCK_Rotatable_Bonds:                   4
##########                       Formal_Charge:          -0.0100003
##########                     HBond_Acceptors:                   9
##########                        HBond_Donors:                   1
##########                         Heavy_Atoms:                  24
##########                          Grid_Score:          -29.641094
##########                     Grid_vdw_energy:          -31.632786
##########                      Grid_es_energy:            1.991692
##########           Internal_energy_repulsive:           19.297535

@<TRIPOS>MOLECULE
ZINC001010141213
 42 44 1 0 0
SMALL
USER_CHARGES


@<TRIPOS>ATOM
      1 C1        -12.4594    0.8319   62.7102 C.3     1  ZINC001010141213   -0.0800
      2 C2        -11.8603    1.2258   61.3848 C.2     1  ZINC001010141213   -0.1500
      3 C3        -10.9490    0.5084   60.6295 C.2     1  ZINC001010141213   -0.0400
      4 C4        -10.3648   -0.8013   60.9598 C.2     1  ZINC001010141213    0.6000
      5 O5         -9.4869   -0.8818   61.7978 O.2     1  ZINC001010141213   -0.5100
      6 N6        -10.8027   -1.9117   60.3339 N.am    1  ZINC001010141213   -0.6100
      7 C7        -11.8585   -1.8289   59.3151 C.3     1  ZINC001010141213    0.0900
      8 C8        -11.3426   -2.4712   58.0214 C.3     1  ZINC001010141213    0.0700
      9 N9        -10.7724   -3.7865   58.3451 N.am    1  ZINC001010141213   -0.6000
     10 C10       -11.2096   -4.8967   57.7184 C.2     1  ZINC001010141213    0.5900
     11 O11       -10.7303   -5.9791   57.9947 O.2     1  ZINC001010141213   -0.5200
     12 C12       -12.2723   -4.7981   56.6948 C.2     1  ZINC001010141213    0.0300
     13 N13       -13.4054   -5.4419   56.8629 N.2     1  ZINC001010141213   -0.1800
     14 N14       -14.3581   -5.3885   56.0040 N.am    1  ZINC001010141213   -0.4400
     15 C15       -14.2538   -4.6660   54.8730 C.2     1  ZINC001010141213    0.4800
     16 O16       -15.1772   -4.6352   54.0766 O.2     1  ZINC001010141213   -0.5100
     17 C17       -13.0677   -3.9434   54.6148 C.2     1  ZINC001010141213   -0.1800
     18 C18       -12.0678   -4.0058   55.5394 C.2     1  ZINC001010141213   -0.0400
     19 C19        -9.7165   -3.8694   59.3640 C.3     1  ZINC001010141213    0.1000
     20 C20       -10.2285   -3.2263   60.6536 C.3     1  ZINC001010141213    0.1000
     21 N21       -10.7006    1.2596   59.5159 N.pl3   1  ZINC001010141213   -0.2700
     22 C22        -9.7899    0.8856   58.4312 C.3     1  ZINC001010141213    0.0900
     23 N23       -11.3879    2.3436   59.5649 N.2     1  ZINC001010141213   -0.2800
     24 C24       -12.1112    2.3896   60.6545 C.2     1  ZINC001010141213    0.0100
     25 H25       -13.3746    0.2644   62.5411 H       1  ZINC001010141213    0.0700
     26 H26       -11.7481    0.2177   63.2624 H       1  ZINC001010141213    0.0600
     27 H27       -12.6890    1.7284   63.2860 H       1  ZINC001010141213    0.0700
     28 H28       -12.7435   -2.3630   59.6610 H       1  ZINC001010141213    0.0800
     29 H29       -12.1076   -0.7839   59.1305 H       1  ZINC001010141213    0.1000
     30 H30       -12.1674   -2.5929   57.3191 H       1  ZINC001010141213    0.1400
     31 H31       -10.5735   -1.8377   57.5797 H       1  ZINC001010141213    0.0800
     32 H32       -15.1753   -5.8824   56.1746 H       1  ZINC001010141213    0.4500
     33 H33       -12.9583   -3.3560   53.7151 H       1  ZINC001010141213    0.1700
     34 H34       -11.1410   -3.4717   55.3904 H       1  ZINC001010141213    0.1700
     35 H35        -9.4674   -4.9143   59.5485 H       1  ZINC001010141213    0.1100
     36 H36        -8.8315   -3.3353   59.0180 H       1  ZINC001010141213    0.0800
     37 H37        -9.4027   -3.1052   61.3548 H       1  ZINC001010141213    0.1100
     38 H38       -10.9984   -3.8578   61.0967 H       1  ZINC001010141213    0.0800
     39 H39       -10.3538    0.4017   57.6337 H       1  ZINC001010141213    0.0900
     40 H40        -9.3030    1.7795   58.0411 H       1  ZINC001010141213    0.1000
     41 H41        -9.0350    0.1974   58.8115 H       1  ZINC001010141213    0.0900
     42 H42       -12.7785    3.1888   60.9414 H       1  ZINC001010141213    0.1900
@<TRIPOS>BOND
     1     1     2    1
     2     1    25    1
     3     1    26    1
     4     1    27    1
     5     2    24    1
     6     2     3    2
     7     3     4    1
     8     3    21    1
     9     4     5    2
    10     4     6   am
    11     6    20    1
    12     6     7    1
    13     7     8    1
    14     7    28    1
    15     7    29    1
    16     8     9    1
    17     8    30    1
    18     8    31    1
    19     9    10   am
    20     9    19    1
    21    10    11    2
    22    10    12    1
    23    12    18    1
    24    12    13    2
    25    13    14    1
    26    14    15   am
    27    14    32    1
    28    15    16    2
    29    15    17    1
    30    17    18    2
    31    17    33    1
    32    18    34    1
    33    19    20    1
    34    19    35    1
    35    19    36    1
    36    20    37    1
    37    20    38    1
    38    21    22    1
    39    21    23    1
    40    22    39    1
    41    22    40    1
    42    22    41    1
    43    23    24    2
    44    24    42    1
@<TRIPOS>SUBSTRUCTURE
     1 ZINC001010141213        1 TEMP              0 ****  ****    0 ROOT


##########                                Name:    ZINC000840649129
##########                DOCK_Rotatable_Bonds:                   8
##########                         Heavy_Atoms:                  26
##########                    Molecular_Weight:             376.839
##########                DOCK_Rotatable_Bonds:                   8
##########                       Formal_Charge:          -0.0199998
##########                     HBond_Acceptors:                   7
##########                        HBond_Donors:                   3
##########                         Heavy_Atoms:                  26
##########                          Grid_Score:          -29.581398
##########                     Grid_vdw_energy:          -29.003159
##########                      Grid_es_energy:           -0.578239
##########           Internal_energy_repulsive:            9.921609

@<TRIPOS>MOLECULE
ZINC000840649129
 47 48 1 0 0
SMALL
USER_CHARGES


@<TRIPOS>ATOM
      1 C1        -15.3727   -3.6420   59.3179 C.3     1  ZINC000840649129    0.0200
      2 O2        -14.3790   -3.0110   58.5077 O.3     1  ZINC000840649129   -0.2900
      3 C3        -13.0996   -3.0504   58.9594 C.ar    1  ZINC000840649129    0.1400
      4 C4        -12.7698   -2.4517   60.1656 C.ar    1  ZINC000840649129   -0.1700
      5 C5        -11.4693   -2.4906   60.6267 C.ar    1  ZINC000840649129   -0.1200
      6 C6        -10.4803   -3.1301   59.8866 C.ar    1  ZINC000840649129    0.1700
      7 N7         -9.1645   -3.1645   60.3624 N.pl3   1  ZINC000840649129   -0.8800
      8 C8        -10.7947   -3.7332   58.6810 C.ar    1  ZINC000840649129   -0.1000
      9 C9        -12.1098   -3.7015   58.2101 C.ar    1  ZINC000840649129   -0.1200
     10 C10       -12.4530   -4.3417   56.9275 C.2     1  ZINC000840649129    0.5100
     11 O11       -12.3365   -5.5444   56.7983 O.2     1  ZINC000840649129   -0.4800
     12 O12       -12.8958   -3.5933   55.8981 O.3     1  ZINC000840649129   -0.3200
     13 C13       -11.8996   -2.8514   55.1459 C.3     1  ZINC000840649129    0.0800
     14 H14       -10.9241   -3.3207   55.2737 H       1  ZINC000840649129    0.1200
     15 C15       -11.8442   -1.4321   55.6496 C.2     1  ZINC000840649129    0.5200
     16 O16       -12.8004   -0.7000   55.5064 O.2     1  ZINC000840649129   -0.4900
     17 N17       -10.7319   -0.9765   56.2592 N.am    1  ZINC000840649129   -0.6600
     18 C18       -10.6803    0.3419   56.7270 C.ar    1  ZINC000840649129    0.1600
     19 C19       -11.4803    0.7339   57.7916 C.ar    1  ZINC000840649129   -0.1400
     20 C20       -11.4269    2.0357   58.2515 C.ar    1  ZINC000840649129   -0.0900
     21 C21       -10.5779    2.9480   57.6530 C.ar    1  ZINC000840649129   -0.1300
     22 C22        -9.7796    2.5616   56.5917 C.ar    1  ZINC000840649129   -0.0900
     23 C23        -9.8239    1.2598   56.1305 C.ar    1  ZINC000840649129   -0.0700
     24 Cl24       -8.8212    0.7748   54.7988 Cl      1  ZINC000840649129   -0.0700
     25 C25       -12.2756   -2.8520   53.6629 C.3     1  ZINC000840649129   -0.1100
     26 C26       -11.3479   -3.8013   52.9019 C.3     1  ZINC000840649129   -0.1600
     27 C27       -13.7242   -3.3185   53.5042 C.3     1  ZINC000840649129   -0.1500
     28 H28       -16.3485   -3.5377   58.8432 H       1  ZINC000840649129    0.1000
     29 H29       -15.1336   -4.6997   59.4282 H       1  ZINC000840649129    0.0600
     30 H30       -15.3943   -3.1699   60.3001 H       1  ZINC000840649129    0.0600
     31 H31       -13.5323   -1.9533   60.7457 H       1  ZINC000840649129    0.1400
     32 H32       -11.2183   -2.0218   61.5668 H       1  ZINC000840649129    0.1300
     33 H33        -8.9430   -2.7426   61.2073 H       1  ZINC000840649129    0.4000
     34 H34        -8.4740   -3.6101   59.8471 H       1  ZINC000840649129    0.4000
     35 H35       -10.0260   -4.2298   58.1074 H       1  ZINC000840649129    0.1400
     36 H36        -9.9671   -1.5620   56.3738 H       1  ZINC000840649129    0.4200
     37 H37       -12.1441    0.0222   58.2597 H       1  ZINC000840649129    0.1700
     38 H38       -12.0494    2.3410   59.0795 H       1  ZINC000840649129    0.1300
     39 H39       -10.5384    3.9649   58.0146 H       1  ZINC000840649129    0.1300
     40 H40        -9.1177    3.2767   56.1261 H       1  ZINC000840649129    0.1400
     41 H41       -12.1726   -1.8439   53.2615 H       1  ZINC000840649129    0.0900
     42 H42       -11.3552   -4.7795   53.3828 H       1  ZINC000840649129    0.0700
     43 H43       -11.6935   -3.8998   51.8729 H       1  ZINC000840649129    0.0800
     44 H44       -10.3341   -3.4010   52.9080 H       1  ZINC000840649129    0.0600
     45 H45       -14.3851   -2.6422   54.0464 H       1  ZINC000840649129    0.0500
     46 H46       -13.9921   -3.3189   52.4477 H       1  ZINC000840649129    0.0600
     47 H47       -13.8273   -4.3266   53.9057 H       1  ZINC000840649129    0.0700
@<TRIPOS>BOND
     1     1     2    1
     2     1    28    1
     3     1    29    1
     4     1    30    1
     5     2     3    1
     6     3     9   ar
     7     3     4   ar
     8     4     5   ar
     9     4    31    1
    10     5     6   ar
    11     5    32    1
    12     6     7    1
    13     6     8   ar
    14     7    33    1
    15     7    34    1
    16     8     9   ar
    17     8    35    1
    18     9    10    1
    19    10    11    2
    20    10    12    1
    21    12    13    1
    22    13    14    1
    23    13    15    1
    24    13    25    1
    25    15    16    2
    26    15    17   am
    27    17    18    1
    28    17    36    1
    29    18    23   ar
    30    18    19   ar
    31    19    20   ar
    32    19    37    1
    33    20    21   ar
    34    20    38    1
    35    21    22   ar
    36    21    39    1
    37    22    23   ar
    38    22    40    1
    39    23    24    1
    40    25    26    1
    41    25    27    1
    42    25    41    1
    43    26    42    1
    44    26    43    1
    45    26    44    1
    46    27    45    1
    47    27    46    1
    48    27    47    1
@<TRIPOS>SUBSTRUCTURE
     1 ZINC000840649129        1 TEMP              0 ****  ****    0 ROOT


##########                                Name:    ZINC001345966764
##########                DOCK_Rotatable_Bonds:                  10
##########                         Heavy_Atoms:                  22
##########                    Molecular_Weight:             333.258
##########                DOCK_Rotatable_Bonds:                  10
##########                       Formal_Charge:           0.0099997
##########                     HBond_Acceptors:                  11
##########                        HBond_Donors:                   4
##########                         Heavy_Atoms:                  22
##########                          Grid_Score:          -29.558733
##########                     Grid_vdw_energy:          -29.018162
##########                      Grid_es_energy:           -0.540570
##########           Internal_energy_repulsive:            5.109687

@<TRIPOS>MOLECULE
ZINC001345966764
 38 38 1 0 0
SMALL
USER_CHARGES


@<TRIPOS>ATOM
      1 N1        -10.3233   -0.0806   60.6806 N.3     1  ZINC001345966764   -0.8400
      2 C2        -10.1535   -1.1561   59.6944 C.3     1  ZINC001345966764    0.0200
      3 C3        -10.0915   -2.5041   60.4155 C.3     1  ZINC001345966764    0.2800
      4 F4         -9.0883   -2.4661   61.3899 F       1  ZINC001345966764   -0.1900
      5 F5        -11.3238   -2.7641   61.0248 F       1  ZINC001345966764   -0.1800
      6 C6         -9.7791   -3.6093   59.4047 C.3     1  ZINC001345966764    0.0800
      7 N7        -10.8212   -3.6384   58.3754 N.am    1  ZINC001345966764   -0.7000
      8 C8        -11.1646   -4.8064   57.7971 C.2     1  ZINC001345966764    0.5100
      9 O9        -10.6095   -5.8336   58.1277 O.2     1  ZINC001345966764   -0.5100
     10 C10       -12.2289   -4.8365   56.7483 C.2     1  ZINC001345966764    0.5100
     11 O11       -13.1765   -5.5852   56.8668 O.2     1  ZINC001345966764   -0.5100
     12 N12       -12.1362   -4.0321   55.6709 N.am    1  ZINC001345966764   -0.7000
     13 C13       -13.1804   -4.0603   54.6437 C.3     1  ZINC001345966764    0.1200
     14 C14       -12.6583   -3.3978   53.3673 C.3     1  ZINC001345966764    0.0600
     15 H15       -12.2609   -4.1497   52.6855 H       1  ZINC001345966764    0.0900
     16 C16       -13.7829   -2.5908   52.6815 C.3     1  ZINC001345966764   -0.1400
     17 C17       -13.0632   -1.3413   52.1261 C.3     1  ZINC001345966764   -0.1500
     18 C18       -11.5890   -1.5414   52.5420 C.3     1  ZINC001345966764    0.0300
     19 H19       -11.0264   -2.0073   51.7330 H       1  ZINC001345966764    0.1200
     20 C20       -10.9575   -0.2017   52.9258 C.3     1  ZINC001345966764    0.4600
     21 F21        -9.5660   -0.3388   52.9738 F       1  ZINC001345966764   -0.1700
     22 F22       -11.2983    0.7645   51.9733 F       1  ZINC001345966764   -0.1700
     23 F23       -11.4306    0.1942   54.1815 F       1  ZINC001345966764   -0.1700
     24 O24       -11.6426   -2.4219   53.6866 O.3     1  ZINC001345966764   -0.3500
     25 H25        -9.5462   -0.0534   61.3234 H       1  ZINC001345966764    0.3500
     26 H26       -10.4474    0.8112   60.2252 H       1  ZINC001345966764    0.3600
     27 H27       -10.9966   -1.1521   59.0035 H       1  ZINC001345966764    0.1100
     28 H28        -9.2285   -0.9979   59.1399 H       1  ZINC001345966764    0.0700
     29 H29        -8.8135   -3.4131   58.9387 H       1  ZINC001345966764    0.1100
     30 H30        -9.7468   -4.5712   59.9165 H       1  ZINC001345966764    0.1100
     31 H31       -11.2641   -2.8173   58.1101 H       1  ZINC001345966764    0.4200
     32 H32       -11.3782   -3.4346   55.5755 H       1  ZINC001345966764    0.4200
     33 H33       -13.4531   -5.0940   54.4311 H       1  ZINC001345966764    0.1000
     34 H34       -14.0567   -3.5196   55.0014 H       1  ZINC001345966764    0.0900
     35 H35       -14.2270   -3.1678   51.8704 H       1  ZINC001345966764    0.0900
     36 H36       -14.5433   -2.3024   53.4073 H       1  ZINC001345966764    0.0900
     37 H37       -13.1517   -1.3007   51.0404 H       1  ZINC001345966764    0.1000
     38 H38       -13.4679   -0.4354   52.5773 H       1  ZINC001345966764    0.0900
@<TRIPOS>BOND
     1     1     2    1
     2     1    25    1
     3     1    26    1
     4     2     3    1
     5     2    27    1
     6     2    28    1
     7     3     4    1
     8     3     5    1
     9     3     6    1
    10     6     7    1
    11     6    29    1
    12     6    30    1
    13     7     8   am
    14     7    31    1
    15     8     9    2
    16     8    10    1
    17    10    11    2
    18    10    12   am
    19    12    13    1
    20    12    32    1
    21    13    14    1
    22    13    33    1
    23    13    34    1
    24    14    15    1
    25    14    24    1
    26    14    16    1
    27    16    17    1
    28    16    35    1
    29    16    36    1
    30    17    18    1
    31    17    37    1
    32    17    38    1
    33    18    19    1
    34    18    20    1
    35    18    24    1
    36    20    21    1
    37    20    22    1
    38    20    23    1
@<TRIPOS>SUBSTRUCTURE
     1 ZINC001345966764        1 TEMP              0 ****  ****    0 ROOT


##########                                Name:    ZINC000345028113
##########                DOCK_Rotatable_Bonds:                   5
##########                         Heavy_Atoms:                  21
##########                    Molecular_Weight:             331.838
##########                DOCK_Rotatable_Bonds:                   5
##########                       Formal_Charge:         4.47035e-07
##########                     HBond_Acceptors:                   6
##########                        HBond_Donors:                   0
##########                         Heavy_Atoms:                  21
##########                          Grid_Score:          -29.523914
##########                     Grid_vdw_energy:          -29.549297
##########                      Grid_es_energy:            0.025383
##########           Internal_energy_repulsive:           13.997532

@<TRIPOS>MOLECULE
ZINC000345028113
 40 41 1 0 0
SMALL
USER_CHARGES


@<TRIPOS>ATOM
      1 C1        -15.1707   -3.3994   57.9273 C.3     1  ZINC000345028113   -0.1700
      2 C2        -13.8013   -3.1544   57.2904 C.3     1  ZINC000345028113    0.1400
      3 H3        -13.2451   -2.4343   57.8906 H       1  ZINC000345028113    0.1100
      4 C4        -13.9886   -2.6018   55.8734 C.3     1  ZINC000345028113   -0.0700
      5 H5        -13.0146   -2.3908   55.4319 H       1  ZINC000345028113    0.0900
      6 C6        -14.8156   -1.3158   55.9296 C.3     1  ZINC000345028113   -0.1400
      7 S7        -14.8558   -3.8445   54.8701 S.3     1  ZINC000345028113   -0.2400
      8 C8        -13.8050   -5.3126   55.0783 C.3     1  ZINC000345028113   -0.1100
      9 C9        -13.6364   -5.5908   56.5758 C.3     1  ZINC000345028113    0.1000
     10 N10       -13.0593   -4.4147   57.2289 N.am    1  ZINC000345028113   -0.6100
     11 C11       -11.8317   -4.4931   57.7796 C.2     1  ZINC000345028113    0.5200
     12 O12       -11.2120   -5.5346   57.7337 O.2     1  ZINC000345028113   -0.5300
     13 C13       -11.2292   -3.2868   58.4524 C.3     1  ZINC000345028113   -0.1400
     14 C14        -9.9127   -3.6820   59.1244 C.3     1  ZINC000345028113    0.0700
     15 O15        -9.1586   -2.5055   59.4236 O.3     1  ZINC000345028113   -0.3000
     16 C16        -9.7858   -1.5365   60.1422 C.ar    1  ZINC000345028113    0.1300
     17 C17       -10.1912   -1.7902   61.4435 C.ar    1  ZINC000345028113   -0.1700
     18 C18       -10.8281   -0.8043   62.1731 C.ar    1  ZINC000345028113   -0.1100
     19 C19       -11.0616    0.4365   61.6056 C.ar    1  ZINC000345028113    0.0800
     20 F20       -11.6839    1.3992   62.3205 F       1  ZINC000345028113   -0.1300
     21 C21       -10.6575    0.6922   60.3059 C.ar    1  ZINC000345028113   -0.1100
     22 C22       -10.0156   -0.2901   59.5755 C.ar    1  ZINC000345028113   -0.0400
     23 Cl23       -9.5090    0.0302   57.9463 Cl      1  ZINC000345028113   -0.0400
     24 H24       -15.0376   -3.7924   58.9352 H       1  ZINC000345028113    0.0600
     25 H25       -15.7232   -2.4610   57.9731 H       1  ZINC000345028113    0.0800
     26 H26       -15.7269   -4.1195   57.3271 H       1  ZINC000345028113    0.0800
     27 H27       -14.2974   -0.5771   56.5411 H       1  ZINC000345028113    0.0800
     28 H28       -14.9476   -0.9244   54.9209 H       1  ZINC000345028113    0.0700
     29 H29       -15.7908   -1.5299   56.3669 H       1  ZINC000345028113    0.0700
     30 H30       -14.2763   -6.1703   54.5983 H       1  ZINC000345028113    0.1200
     31 H31       -12.8291   -5.1301   54.6284 H       1  ZINC000345028113    0.0900
     32 H32       -14.6088   -5.8103   57.0163 H       1  ZINC000345028113    0.0900
     33 H33       -12.9736   -6.4450   56.7143 H       1  ZINC000345028113    0.1000
     34 H34       -11.0395   -2.5128   57.7087 H       1  ZINC000345028113    0.1100
     35 H35       -11.9210   -2.9065   59.2041 H       1  ZINC000345028113    0.1100
     36 H36       -10.1238   -4.2227   60.0471 H       1  ZINC000345028113    0.0800
     37 H37        -9.3390   -4.3202   58.4524 H       1  ZINC000345028113    0.0800
     38 H38       -10.0097   -2.7581   61.8868 H       1  ZINC000345028113    0.1500
     39 H39       -11.1442   -1.0021   63.1867 H       1  ZINC000345028113    0.1500
     40 H40       -10.8406    1.6607   59.8643 H       1  ZINC000345028113    0.1500
@<TRIPOS>BOND
     1     1     2    1
     2     1    24    1
     3     1    25    1
     4     1    26    1
     5     2     3    1
     6     2    10    1
     7     2     4    1
     8     4     5    1
     9     4     6    1
    10     4     7    1
    11     6    27    1
    12     6    28    1
    13     6    29    1
    14     7     8    1
    15     8     9    1
    16     8    30    1
    17     8    31    1
    18     9    10    1
    19     9    32    1
    20     9    33    1
    21    10    11   am
    22    11    12    2
    23    11    13    1
    24    13    14    1
    25    13    34    1
    26    13    35    1
    27    14    15    1
    28    14    36    1
    29    14    37    1
    30    15    16    1
    31    16    22   ar
    32    16    17   ar
    33    17    18   ar
    34    17    38    1
    35    18    19   ar
    36    18    39    1
    37    19    20    1
    38    19    21   ar
    39    21    22   ar
    40    21    40    1
    41    22    23    1
@<TRIPOS>SUBSTRUCTURE
     1 ZINC000345028113        1 TEMP              0 ****  ****    0 ROOT


##########                                Name:    ZINC000331626032
##########                DOCK_Rotatable_Bonds:                   5
##########                         Heavy_Atoms:                  25
##########                    Molecular_Weight:              339.44
##########                DOCK_Rotatable_Bonds:                   5
##########                       Formal_Charge:        -2.16067e-07
##########                     HBond_Acceptors:                   6
##########                        HBond_Donors:                   2
##########                         Heavy_Atoms:                  25
##########                          Grid_Score:          -29.423815
##########                     Grid_vdw_energy:          -27.212021
##########                      Grid_es_energy:           -2.211794
##########           Internal_energy_repulsive:          186.595703

@<TRIPOS>MOLECULE
ZINC000331626032
 50 52 1 0 0
SMALL
USER_CHARGES


@<TRIPOS>ATOM
      1 C1        -10.5539    1.3371   58.4705 C.3     1  ZINC000331626032   -0.2000
      2 C2        -10.6348    0.4546   59.7178 C.3     1  ZINC000331626032    0.0700
      3 H3         -9.9355    0.8220   60.4688 H       1  ZINC000331626032    0.1100
      4 C4        -12.0354    0.4964   60.2726 C.2     1  ZINC000331626032    0.5200
      5 O5        -12.9867    0.4293   59.5232 O.2     1  ZINC000331626032   -0.5000
      6 N6        -12.2307    0.6081   61.6014 N.am    1  ZINC000331626032   -0.5800
      7 C7        -11.0817    0.6892   62.5064 C.3     1  ZINC000331626032    0.0800
      8 C8        -13.5312    0.6469   62.1165 C.ar    1  ZINC000331626032    0.1400
      9 C9        -14.6215    0.5655   61.2601 C.ar    1  ZINC000331626032   -0.1000
     10 C10       -15.9038    0.6040   61.7717 C.ar    1  ZINC000331626032   -0.1100
     11 C11       -16.1027    0.7240   63.1348 C.ar    1  ZINC000331626032   -0.1200
     12 C12       -15.0192    0.8056   63.9901 C.ar    1  ZINC000331626032   -0.1100
     13 C13       -13.7343    0.7609   63.4855 C.ar    1  ZINC000331626032   -0.1200
     14 N14       -10.2899   -0.9284   59.3623 N.3     1  ZINC000331626032   -0.5100
     15 C15        -9.6380   -1.6134   60.4857 C.3     1  ZINC000331626032    0.0500
     16 C16        -9.1635   -2.9968   60.0352 C.3     1  ZINC000331626032   -0.1100
     17 C17       -10.3658   -3.8092   59.5462 C.3     1  ZINC000331626032   -0.1100
     18 C18       -11.0555   -3.0508   58.4088 C.3     1  ZINC000331626032   -0.0400
     19 H19       -10.3652   -2.9432   57.5721 H       1  ZINC000331626032    0.1000
     20 C20       -12.2742   -3.8157   57.9604 C.ar    1  ZINC000331626032    0.2300
     21 C21       -12.1715   -4.7811   56.9716 C.ar    1  ZINC000331626032   -0.2900
     22 C22       -13.3169   -5.4616   56.5883 C.ar    1  ZINC000331626032    0.1900
     23 N23       -14.4665   -5.1709   57.1742 N.ar    1  ZINC000331626032   -0.5700
     24 C24       -14.5304   -4.2418   58.1168 C.ar    1  ZINC000331626032    0.5700
     25 N25       -15.7499   -3.9632   58.7092 N.pl3   1  ZINC000331626032   -0.8200
     26 N26       -13.4538   -3.5773   58.5097 N.ar    1  ZINC000331626032   -0.5700
     27 C27       -11.4751   -1.6658   58.9064 C.3     1  ZINC000331626032    0.0700
     28 H28       -11.2533    0.9698   57.7195 H       1  ZINC000331626032    0.0700
     29 H29       -10.8099    2.3633   58.7342 H       1  ZINC000331626032    0.0800
     30 H30        -9.5409    1.3070   58.0692 H       1  ZINC000331626032    0.0700
     31 H31       -10.8005    1.7333   62.6442 H       1  ZINC000331626032    0.0600
     32 H32       -11.3468    0.2541   63.4701 H       1  ZINC000331626032    0.0800
     33 H33       -10.2427    0.1405   62.0785 H       1  ZINC000331626032    0.0800
     34 H34       -14.4668    0.4725   60.1953 H       1  ZINC000331626032    0.1200
     35 H35       -16.7521    0.5408   61.1062 H       1  ZINC000331626032    0.1300
     36 H36       -17.1065    0.7541   63.5323 H       1  ZINC000331626032    0.1300
     37 H37       -15.1778    0.8999   65.0542 H       1  ZINC000331626032    0.1300
     38 H38       -12.8885    0.8249   64.1540 H       1  ZINC000331626032    0.1200
     39 H39        -8.7822   -1.0275   60.8212 H       1  ZINC000331626032    0.0900
     40 H40       -10.3475   -1.7221   61.3060 H       1  ZINC000331626032    0.0300
     41 H41        -8.4434   -2.8885   59.2242 H       1  ZINC000331626032    0.0800
     42 H42        -8.6935   -3.5112   60.8735 H       1  ZINC000331626032    0.0700
     43 H43       -10.0267   -4.7796   59.1840 H       1  ZINC000331626032    0.0700
     44 H44       -11.0681   -3.9510   60.3677 H       1  ZINC000331626032    0.0700
     45 H45       -11.2199   -4.9985   56.5093 H       1  ZINC000331626032    0.1400
     46 H46       -13.2712   -6.2196   55.8204 H       1  ZINC000331626032    0.1700
     47 H47       -16.5447   -4.4459   58.4333 H       1  ZINC000331626032    0.4100
     48 H48       -15.8097   -3.2853   59.4004 H       1  ZINC000331626032    0.4100
     49 H49       -12.1760   -1.7742   59.7341 H       1  ZINC000331626032    0.0400
     50 H50       -11.9538   -1.1178   58.0947 H       1  ZINC000331626032    0.0800
@<TRIPOS>BOND
     1     1     2    1
     2     1    28    1
     3     1    29    1
     4     1    30    1
     5     2     3    1
     6     2     4    1
     7     2    14    1
     8     4     5    2
     9     4     6   am
    10     6     7    1
    11     6     8    1
    12     7    31    1
    13     7    32    1
    14     7    33    1
    15     8    13   ar
    16     8     9   ar
    17     9    10   ar
    18     9    34    1
    19    10    11   ar
    20    10    35    1
    21    11    12   ar
    22    11    36    1
    23    12    13   ar
    24    12    37    1
    25    13    38    1
    26    14    27    1
    27    14    15    1
    28    15    16    1
    29    15    39    1
    30    15    40    1
    31    16    17    1
    32    16    41    1
    33    16    42    1
    34    17    18    1
    35    17    43    1
    36    17    44    1
    37    18    19    1
    38    18    20    1
    39    18    27    1
    40    20    26   ar
    41    20    21   ar
    42    21    22   ar
    43    21    45    1
    44    22    23   ar
    45    22    46    1
    46    23    24   ar
    47    24    25    1
    48    24    26   ar
    49    25    47    1
    50    25    48    1
    51    27    49    1
    52    27    50    1
@<TRIPOS>SUBSTRUCTURE
     1 ZINC000331626032        1 TEMP              0 ****  ****    0 ROOT


##########                                Name:    ZINC000768148687
##########                DOCK_Rotatable_Bonds:                   8
##########                         Heavy_Atoms:                  25
##########                    Molecular_Weight:             371.307
##########                DOCK_Rotatable_Bonds:                   8
##########                       Formal_Charge:         2.98023e-08
##########                     HBond_Acceptors:                  11
##########                        HBond_Donors:                   0
##########                         Heavy_Atoms:                  25
##########                          Grid_Score:          -29.388439
##########                     Grid_vdw_energy:          -29.170746
##########                      Grid_es_energy:           -0.217694
##########           Internal_energy_repulsive:           16.870100

@<TRIPOS>MOLECULE
ZINC000768148687
 43 44 1 0 0
SMALL
USER_CHARGES


@<TRIPOS>ATOM
      1 C1        -13.7003   -5.9532   56.3294 C.3     1  ZINC000768148687   -0.1800
      2 C2        -13.1350   -4.5614   56.0394 C.3     1  ZINC000768148687    0.1100
      3 N3        -12.5649   -4.0004   57.2667 N.pl3   1  ZINC000768148687   -0.3100
      4 N4        -11.2163   -4.0469   57.6373 N.2     1  ZINC000768148687   -0.2000
      5 C5        -11.0730   -3.4491   58.7876 C.2     1  ZINC000768148687    0.0200
      6 C6         -9.7795   -3.2777   59.5416 C.3     1  ZINC000768148687    0.5500
      7 F7         -8.8776   -4.2741   59.1529 F       1  ZINC000768148687   -0.1600
      8 F8         -9.2366   -2.0203   59.2563 F       1  ZINC000768148687   -0.1600
      9 F9        -10.0233   -3.3796   60.9153 F       1  ZINC000768148687   -0.1500
     10 C10       -12.3437   -2.9903   59.2032 C.2     1  ZINC000768148687   -0.1800
     11 C11       -12.6465   -2.2605   60.4461 C.2     1  ZINC000768148687    0.5300
     12 O12       -13.1739   -2.8376   61.3765 O.2     1  ZINC000768148687   -0.4700
     13 O13       -12.3389   -0.9528   60.5517 O.3     1  ZINC000768148687   -0.3400
     14 C14       -12.9862   -0.2072   61.6163 C.3     1  ZINC000768148687    0.0200
     15 C15       -12.3140    1.1593   61.7635 C.3     1  ZINC000768148687    0.0600
     16 N16       -11.2274    1.0671   62.7477 N.3     1  ZINC000768148687   -0.5300
     17 C17       -10.4334   -0.1532   62.5431 C.3     1  ZINC000768148687    0.0100
     18 C18        -9.2795   -0.1794   63.5489 C.3     1  ZINC000768148687    0.0600
     19 O19        -9.8076   -0.0932   64.8751 O.3     1  ZINC000768148687   -0.3800
     20 C20       -10.5858    1.0837   65.1095 C.3     1  ZINC000768148687    0.0600
     21 C21       -11.7530    1.1227   64.1196 C.3     1  ZINC000768148687    0.0100
     22 C22       -13.2473   -3.3499   58.2222 C.2     1  ZINC000768148687    0.0600
     23 C23       -14.7284   -3.0721   58.2285 C.3     1  ZINC000768148687    0.3400
     24 F24       -15.2694   -3.4547   59.4605 F       1  ZINC000768148687   -0.1700
     25 F25       -14.9473   -1.7051   58.0274 F       1  ZINC000768148687   -0.1800
     26 H26       -14.1245   -6.3706   55.4162 H       1  ZINC000768148687    0.0900
     27 H27       -12.9016   -6.6022   56.6887 H       1  ZINC000768148687    0.0700
     28 H28       -14.4775   -5.8785   57.0899 H       1  ZINC000768148687    0.0700
     29 H29       -12.3578   -4.6361   55.2789 H       1  ZINC000768148687    0.1100
     30 H30       -13.9337   -3.9124   55.6801 H       1  ZINC000768148687    0.1200
     31 H31       -14.0401   -0.0695   61.3746 H       1  ZINC000768148687    0.0800
     32 H32       -12.8971   -0.7586   62.5522 H       1  ZINC000768148687    0.0800
     33 H33       -11.9071    1.4696   60.8011 H       1  ZINC000768148687    0.1100
     34 H34       -13.0483    1.8910   62.1004 H       1  ZINC000768148687    0.0900
     35 H35       -11.0661   -1.0282   62.6921 H       1  ZINC000768148687    0.0500
     36 H36       -10.0330   -0.1612   61.5293 H       1  ZINC000768148687    0.0900
     37 H37        -8.7219   -1.1096   63.4389 H       1  ZINC000768148687    0.1000
     38 H38        -8.6172    0.6666   63.3650 H       1  ZINC000768148687    0.0600
     39 H39       -10.9730    1.0671   66.1282 H       1  ZINC000768148687    0.1000
     40 H40        -9.9615    1.9664   64.9710 H       1  ZINC000768148687    0.0600
     41 H41       -12.3158    2.0460   64.2565 H       1  ZINC000768148687    0.0800
     42 H42       -12.4067    0.2680   64.2938 H       1  ZINC000768148687    0.0700
     43 H43       -15.2077   -3.6381   57.4297 H       1  ZINC000768148687    0.1500
@<TRIPOS>BOND
     1     1     2    1
     2     1    26    1
     3     1    27    1
     4     1    28    1
     5     2     3    1
     6     2    29    1
     7     2    30    1
     8     3    22    1
     9     3     4    1
    10     4     5    2
    11     5     6    1
    12     5    10    1
    13     6     7    1
    14     6     8    1
    15     6     9    1
    16    10    11    1
    17    10    22    2
    18    11    12    2
    19    11    13    1
    20    13    14    1
    21    14    15    1
    22    14    31    1
    23    14    32    1
    24    15    16    1
    25    15    33    1
    26    15    34    1
    27    16    21    1
    28    16    17    1
    29    17    18    1
    30    17    35    1
    31    17    36    1
    32    18    19    1
    33    18    37    1
    34    18    38    1
    35    19    20    1
    36    20    21    1
    37    20    39    1
    38    20    40    1
    39    21    41    1
    40    21    42    1
    41    22    23    1
    42    23    24    1
    43    23    25    1
    44    23    43    1
@<TRIPOS>SUBSTRUCTURE
     1 ZINC000768148687        1 TEMP              0 ****  ****    0 ROOT


##########                                Name:    ZINC000011498449
##########                DOCK_Rotatable_Bonds:                   5
##########                         Heavy_Atoms:                  21
##########                    Molecular_Weight:             331.198
##########                DOCK_Rotatable_Bonds:                   5
##########                       Formal_Charge:         1.30385e-07
##########                     HBond_Acceptors:                   7
##########                        HBond_Donors:                   1
##########                         Heavy_Atoms:                  21
##########                          Grid_Score:          -29.384953
##########                     Grid_vdw_energy:          -26.789789
##########                      Grid_es_energy:           -2.595163
##########           Internal_energy_repulsive:           20.342928

@<TRIPOS>MOLECULE
ZINC000011498449
 37 38 1 0 0
SMALL
USER_CHARGES


@<TRIPOS>ATOM
      1 C1        -13.3069   -2.0367   55.2239 C.3     1  ZINC000011498449   -0.1500
      2 C2        -12.7166   -2.5696   56.5311 C.3     1  ZINC000011498449    0.0700
      3 H3        -13.1782   -2.0566   57.3748 H       1  ZINC000011498449    0.0600
      4 C4        -11.2037   -2.3232   56.5476 C.3     1  ZINC000011498449    0.0800
      5 N5        -10.6349   -3.0069   57.7201 N.am    1  ZINC000011498449   -0.6100
      6 C6         -9.8228   -2.3561   58.5763 C.2     1  ZINC000011498449    0.5100
      7 O7         -9.5520   -1.1892   58.3869 O.2     1  ZINC000011498449   -0.5300
      8 C8         -9.2511   -3.0784   59.7690 C.3     1  ZINC000011498449    0.1000
      9 N9         -9.0449   -2.1266   60.8635 N.am    1  ZINC000011498449   -0.7200
     10 C10       -10.1051   -1.5522   61.4657 C.2     1  ZINC000011498449    0.5600
     11 O11       -11.2324   -1.8248   61.1017 O.2     1  ZINC000011498449   -0.5100
     12 C12        -9.8971   -0.5912   62.5681 C.ar    1  ZINC000011498449   -0.1300
     13 C13        -9.1908   -0.9758   63.7096 C.ar    1  ZINC000011498449   -0.0600
     14 C14        -8.9995   -0.0743   64.7350 C.ar    1  ZINC000011498449   -0.1100
     15 C15        -9.5060    1.2113   64.6355 C.ar    1  ZINC000011498449    0.0000
     16 Cl16       -9.2598    2.3399   65.9313 Cl      1  ZINC000011498449   -0.0400
     17 C17       -10.2074    1.6000   63.5067 C.ar    1  ZINC000011498449   -0.1100
     18 C18       -10.4014    0.7087   62.4705 C.ar    1  ZINC000011498449    0.0300
     19 Cl19      -11.2808    1.1970   61.0557 Cl      1  ZINC000011498449   -0.0100
     20 C20       -10.9797   -4.4220   57.9303 C.3     1  ZINC000011498449    0.0700
     21 C21       -12.5035   -4.5660   57.8463 C.3     1  ZINC000011498449    0.0500
     22 O22       -12.9670   -3.9736   56.6307 O.3     1  ZINC000011498449   -0.3700
     23 H23       -14.3823   -2.2138   55.2121 H       1  ZINC000011498449    0.0700
     24 H24       -13.1139   -0.9666   55.1479 H       1  ZINC000011498449    0.0800
     25 H25       -12.8448   -2.5500   54.3807 H       1  ZINC000011498449    0.0700
     26 H26       -10.7567   -2.7226   55.6372 H       1  ZINC000011498449    0.0800
     27 H27       -11.0066   -1.2533   56.6151 H       1  ZINC000011498449    0.1000
     28 H28        -9.9445   -3.8560   60.0896 H       1  ZINC000011498449    0.1000
     29 H29        -8.2977   -3.5313   59.4970 H       1  ZINC000011498449    0.1000
     30 H30        -8.1454   -1.9099   61.1548 H       1  ZINC000011498449    0.4100
     31 H31        -8.7955   -1.9776   63.7892 H       1  ZINC000011498449    0.1500
     32 H32        -8.4536   -0.3712   65.6183 H       1  ZINC000011498449    0.1500
     33 H33       -10.5999    2.6037   63.4350 H       1  ZINC000011498449    0.1500
     34 H34       -10.5102   -5.0327   57.1591 H       1  ZINC000011498449    0.0900
     35 H35       -10.6342   -4.7419   58.9134 H       1  ZINC000011498449    0.1000
     36 H36       -12.7707   -5.6227   57.8614 H       1  ZINC000011498449    0.1100
     37 H37       -12.9642   -4.0611   58.6954 H       1  ZINC000011498449    0.0600
@<TRIPOS>BOND
     1     1     2    1
     2     1    23    1
     3     1    24    1
     4     1    25    1
     5     2     3    1
     6     2    22    1
     7     2     4    1
     8     4     5    1
     9     4    26    1
    10     4    27    1
    11     5     6   am
    12     5    20    1
    13     6     7    2
    14     6     8    1
    15     8     9    1
    16     8    28    1
    17     8    29    1
    18     9    10   am
    19     9    30    1
    20    10    11    2
    21    10    12    1
    22    12    18   ar
    23    12    13   ar
    24    13    14   ar
    25    13    31    1
    26    14    15   ar
    27    14    32    1
    28    15    16    1
    29    15    17   ar
    30    17    18   ar
    31    17    33    1
    32    18    19    1
    33    20    21    1
    34    20    34    1
    35    20    35    1
    36    21    22    1
    37    21    36    1
    38    21    37    1
@<TRIPOS>SUBSTRUCTURE
     1 ZINC000011498449        1 TEMP              0 ****  ****    0 ROOT


##########                                Name:    ZINC000493443319
##########                DOCK_Rotatable_Bonds:                   6
##########                         Heavy_Atoms:                  25
##########                    Molecular_Weight:             348.399
##########                DOCK_Rotatable_Bonds:                   6
##########                       Formal_Charge:        -3.27826e-07
##########                     HBond_Acceptors:                   7
##########                        HBond_Donors:                   0
##########                         Heavy_Atoms:                  25
##########                          Grid_Score:          -29.384222
##########                     Grid_vdw_energy:          -29.111149
##########                      Grid_es_energy:           -0.273074
##########           Internal_energy_repulsive:           47.919575

@<TRIPOS>MOLECULE
ZINC000493443319
 49 51 1 0 0
SMALL
USER_CHARGES


@<TRIPOS>ATOM
      1 C1         -5.8600    2.3373   51.9657 C.3     1  <0>        -0.1500
      2 C2         -6.8457    1.6649   51.0079 C.3     1  <0>         0.0500
      3 O3         -6.9131    0.2673   51.2975 O.3     1  <0>        -0.3200
      4 C4         -8.0723   -0.1963   51.8365 C.ar    1  <0>         0.1000
      5 C5         -8.5780   -1.4258   51.4411 C.ar    1  <0>        -0.1700
      6 C6         -9.7554   -1.8968   51.9885 C.ar    1  <0>        -0.1100
      7 C7        -10.4319   -1.1404   52.9340 C.ar    1  <0>         0.0800
      8 O8        -11.5912   -1.6039   53.4727 O.3     1  <0>        -0.3000
      9 C9        -12.8079   -1.0474   52.9707 C.3     1  <0>         0.1000
     10 C10       -13.2303    0.1316   53.8497 C.3     1  <0>        -0.1800
     11 C11       -12.5930   -0.5624   51.5356 C.3     1  <0>        -0.1500
     12 C12       -13.8868   -2.0995   52.9891 C.2     1  <0>         0.5100
     13 O13       -14.5365   -2.3193   51.9889 O.2     1  <0>        -0.5200
     14 N14       -14.1295   -2.7961   54.1171 N.am    1  <0>        -0.6000
     15 C15       -15.1798   -3.8217   54.1383 C.3     1  <0>         0.0700
     16 C16       -14.5652   -5.1604   54.5775 C.3     1  <0>         0.1300
     17 N17       -13.7195   -4.8920   55.7490 N.am    1  <0>        -0.6300
     18 C18       -13.7507   -5.4814   56.9453 C.2     1  <0>         0.6500
     19 O19       -14.4100   -6.4747   57.1805 O.2     1  <0>        -0.5200
     20 O20       -12.9863   -4.8740   57.8628 O.3     1  <0>        -0.3200
     21 C21       -12.2601   -3.7736   57.2392 C.3     1  <0>         0.0500
     22 C22       -12.6755   -3.8446   55.7609 C.3     1  <0>         0.0800
     23 H23       -11.8339   -4.1086   55.1205 H       1  <0>         0.1100
     24 C24       -13.3387   -2.5359   55.3299 C.3     1  <0>         0.1000
     25 C25        -9.9254    0.0884   53.3306 C.ar    1  <0>        -0.1800
     26 C26        -8.7459    0.5576   52.7859 C.ar    1  <0>        -0.1100
     27 H27        -5.8086    3.4034   51.7448 H       1  <0>         0.0800
     28 H28        -6.1966    2.1948   52.9926 H       1  <0>         0.0700
     29 H29        -4.8726    1.8926   51.8420 H       1  <0>         0.0700
     30 H30        -7.8332    2.1097   51.1316 H       1  <0>         0.0600
     31 H31        -6.5091    1.8075   49.9811 H       1  <0>         0.0600
     32 H32        -8.0512   -2.0147   50.7047 H       1  <0>         0.1400
     33 H33       -10.1496   -2.8538   51.6800 H       1  <0>         0.1400
     34 H34       -12.5150    0.9458   53.7336 H       1  <0>         0.0800
     35 H35       -14.2209    0.4726   53.5487 H       1  <0>         0.0900
     36 H36       -13.2559   -0.1837   54.8928 H       1  <0>         0.0800
     37 H37       -12.2068   -1.3817   50.9293 H       1  <0>         0.0800
     38 H38       -13.5415   -0.2198   51.1220 H       1  <0>         0.0900
     39 H39       -11.8775    0.2599   51.5334 H       1  <0>         0.0900
     40 H40       -15.9597   -3.5303   54.8418 H       1  <0>         0.0800
     41 H41       -15.6073   -3.9265   53.1411 H       1  <0>         0.1300
     42 H42       -15.3562   -5.8615   54.8444 H       1  <0>         0.1100
     43 H43       -13.9600   -5.5730   53.7703 H       1  <0>         0.0800
     44 H44       -12.5613   -2.8212   57.6755 H       1  <0>         0.1100
     45 H45       -11.1847   -3.9188   57.3414 H       1  <0>         0.1100
     46 H46       -12.5744   -1.7883   55.1177 H       1  <0>         0.1100
     47 H47       -13.9953   -2.1774   56.1228 H       1  <0>         0.0800
     48 H48       -10.4519    0.6772   54.0672 H       1  <0>         0.1600
     49 H49        -8.3516    1.5145   53.0947 H       1  <0>         0.1300
@<TRIPOS>BOND
     1     1     2    1
     2     1    27    1
     3     1    28    1
     4     1    29    1
     5     2     3    1
     6     2    30    1
     7     2    31    1
     8     3     4    1
     9     4    26   ar
    10     4     5   ar
    11     5     6   ar
    12     5    32    1
    13     6     7   ar
    14     6    33    1
    15     7     8    1
    16     7    25   ar
    17     8     9    1
    18     9    10    1
    19     9    11    1
    20     9    12    1
    21    10    34    1
    22    10    35    1
    23    10    36    1
    24    11    37    1
    25    11    38    1
    26    11    39    1
    27    12    13    2
    28    12    14   am
    29    14    24    1
    30    14    15    1
    31    15    16    1
    32    15    40    1
    33    15    41    1
    34    16    17    1
    35    16    42    1
    36    16    43    1
    37    17    22    1
    38    17    18   am
    39    18    19    2
    40    18    20    1
    41    20    21    1
    42    21    22    1
    43    21    44    1
    44    21    45    1
    45    22    23    1
    46    22    24    1
    47    24    46    1
    48    24    47    1
    49    25    26   ar
    50    25    48    1
    51    26    49    1
@<TRIPOS>SUBSTRUCTURE
     1 <0>         1 TEMP              0 ****  ****    0 ROOT


##########                                Name:    ZINC000888733009
##########                DOCK_Rotatable_Bonds:                   6
##########                         Heavy_Atoms:                  25
##########                    Molecular_Weight:             360.434
##########                DOCK_Rotatable_Bonds:                   6
##########                       Formal_Charge:        -1.02073e-06
##########                     HBond_Acceptors:                   7
##########                        HBond_Donors:                   2
##########                         Heavy_Atoms:                  25
##########                          Grid_Score:          -29.373379
##########                     Grid_vdw_energy:          -28.968031
##########                      Grid_es_energy:           -0.405348
##########           Internal_energy_repulsive:           19.997389

@<TRIPOS>MOLECULE
ZINC000888733009
 45 48 1 0 0
SMALL
USER_CHARGES


@<TRIPOS>ATOM
      1 C1        -11.7808   -4.2739   52.7804 C.3     1  ZINC000888733009   -0.1500
      2 C2        -13.1628   -4.2497   53.4366 C.3     1  ZINC000888733009    0.0700
      3 H3        -13.9339   -4.0668   52.6883 H       1  ZINC000888733009    0.0700
      4 C4        -13.2158   -3.1663   54.5404 C.3     1  ZINC000888733009   -0.1300
      5 C5        -14.0761   -3.8088   55.6367 C.3     1  ZINC000888733009   -0.1100
      6 C6        -13.4907   -3.7761   57.0462 C.3     1  ZINC000888733009   -0.1300
      7 C7        -14.9294   -3.5433   57.5432 C.3     1  ZINC000888733009    0.1200
      8 N8        -15.0242   -2.5569   58.6223 N.am    1  ZINC000888733009   -0.7100
      9 C9        -16.1870   -2.3909   59.2833 C.2     1  ZINC000888733009    0.5900
     10 O10       -17.1578   -3.0616   58.9848 O.2     1  ZINC000888733009   -0.5600
     11 C11       -16.2823   -1.4027   60.3618 C.2     1  ZINC000888733009   -0.2400
     12 C12       -15.2174   -1.0195   61.1361 C.2     1  ZINC000888733009    0.0800
     13 N13       -13.9289   -1.5095   61.0017 N.am    1  ZINC000888733009   -0.6100
     14 C14       -12.9045   -0.8910   61.6219 C.2     1  ZINC000888733009    0.6000
     15 O15       -13.1119    0.0972   62.3013 O.2     1  ZINC000888733009   -0.4900
     16 C16       -11.5406   -1.4085   61.4782 C.2     1  ZINC000888733009   -0.0900
     17 C17       -11.1424   -2.3942   60.6207 C.2     1  ZINC000888733009   -0.1000
     18 C18        -9.7635   -2.5674   60.8176 C.2     1  ZINC000888733009   -0.2300
     19 C19        -9.3851   -1.6911   61.7743 C.2     1  ZINC000888733009    0.0100
     20 O20       -10.4575   -0.9907   62.1657 O.3     1  ZINC000888733009   -0.1600
     21 S21       -15.6971    0.1432   62.2865 S.3     1  ZINC000888733009    0.3000
     22 C22       -17.3602    0.1239   61.7274 C.2     1  ZINC000888733009   -0.2800
     23 C23       -17.5083   -0.7233   60.7190 C.2     1  ZINC000888733009   -0.0900
     24 C24       -15.2393   -2.9643   56.1505 C.3     1  ZINC000888733009   -0.1400
     25 C25       -14.4442   -5.1975   55.0976 C.3     1  ZINC000888733009    0.0700
     26 O26       -13.4147   -5.4956   54.1242 O.3     1  ZINC000888733009   -0.3700
     27 H27       -11.7510   -5.0590   52.0249 H       1  ZINC000888733009    0.0600
     28 H28       -11.5847   -3.3100   52.3108 H       1  ZINC000888733009    0.0700
     29 H29       -11.0221   -4.4698   53.5381 H       1  ZINC000888733009    0.0600
     30 H30       -12.2150   -2.9514   54.9151 H       1  ZINC000888733009    0.0800
     31 H31       -13.6886   -2.2590   54.1645 H       1  ZINC000888733009    0.0800
     32 H32       -13.0659   -4.7277   57.3658 H       1  ZINC000888733009    0.0800
     33 H33       -12.8243   -2.9320   57.2237 H       1  ZINC000888733009    0.0900
     34 H34       -15.4689   -4.4644   57.7638 H       1  ZINC000888733009    0.1200
     35 H35       -14.2502   -2.0234   58.8610 H       1  ZINC000888733009    0.4000
     36 H36       -13.7638   -2.2978   60.4612 H       1  ZINC000888733009    0.4400
     37 H37       -11.7673   -2.9357   59.9261 H       1  ZINC000888733009    0.1700
     38 H38        -9.1249   -3.2692   60.3016 H       1  ZINC000888733009    0.1600
     39 H39        -8.3823   -1.5720   62.1569 H       1  ZINC000888733009    0.2200
     40 H40       -18.1546    0.7242   62.1456 H       1  ZINC000888733009    0.1700
     41 H41       -18.4506   -0.8950   60.2200 H       1  ZINC000888733009    0.1500
     42 H42       -15.0674   -1.8906   56.0746 H       1  ZINC000888733009    0.0900
     43 H43       -16.2088   -3.2685   55.7558 H       1  ZINC000888733009    0.0800
     44 H44       -14.4327   -5.9331   55.9018 H       1  ZINC000888733009    0.0900
     45 H45       -15.4227   -5.1722   54.6180 H       1  ZINC000888733009    0.0700
@<TRIPOS>BOND
     1     1     2    1
     2     1    27    1
     3     1    28    1
     4     1    29    1
     5     2     3    1
     6     2    26    1
     7     2     4    1
     8     4     5    1
     9     4    30    1
    10     4    31    1
    11     5    24    1
    12     5     6    1
    13     5    25    1
    14     6     7    1
    15     6    32    1
    16     6    33    1
    17     7     8    1
    18     7    24    1
    19     7    34    1
    20     8     9   am
    21     8    35    1
    22     9    10    2
    23     9    11    1
    24    11    23    1
    25    11    12    2
    26    12    13    1
    27    12    21    1
    28    13    14   am
    29    13    36    1
    30    14    15    2
    31    14    16    1
    32    16    20    1
    33    16    17    2
    34    17    18    1
    35    17    37    1
    36    18    19    2
    37    18    38    1
    38    19    20    1
    39    19    39    1
    40    21    22    1
    41    22    23    2
    42    22    40    1
    43    23    41    1
    44    24    42    1
    45    24    43    1
    46    25    26    1
    47    25    44    1
    48    25    45    1
@<TRIPOS>SUBSTRUCTURE
     1 ZINC000888733009        1 TEMP              0 ****  ****    0 ROOT


##########                                Name:    ZINC000444205493
##########                DOCK_Rotatable_Bonds:                   4
##########                         Heavy_Atoms:                  24
##########                    Molecular_Weight:             415.351
##########                DOCK_Rotatable_Bonds:                   4
##########                       Formal_Charge:         -0.00999995
##########                     HBond_Acceptors:                   6
##########                        HBond_Donors:                   1
##########                         Heavy_Atoms:                  24
##########                          Grid_Score:          -29.345427
##########                     Grid_vdw_energy:          -28.457283
##########                      Grid_es_energy:           -0.888144
##########           Internal_energy_repulsive:            4.534338

@<TRIPOS>MOLECULE
ZINC000444205493
 47 49 1 0 0
SMALL
USER_CHARGES


@<TRIPOS>ATOM
      1 C1        -10.9144    1.7239   63.8977 C.3     1  ZINC000444205493   -0.1700
      2 C2        -11.7418    0.9735   62.8862 C.2     1  ZINC000444205493    0.5100
      3 O3        -12.0372    1.4997   61.8341 O.2     1  ZINC000444205493   -0.5100
      4 N4        -12.1537   -0.2822   63.1506 N.am    1  ZINC000444205493   -0.6800
      5 C5        -12.9222   -0.9791   62.2111 C.ar    1  ZINC000444205493    0.2300
      6 C6        -14.3079   -0.9552   62.2905 C.ar    1  ZINC000444205493   -0.1400
      7 C7        -15.0637   -1.6437   61.3613 C.ar    1  ZINC000444205493    0.0200
      8 C8        -14.4418   -2.3566   60.3532 C.ar    1  ZINC000444205493   -0.6900
      9 S9        -15.4099   -3.2336   59.1707 S.o2    1  ZINC000444205493    2.7100
     10 O10       -15.1729   -4.6152   59.4035 O.2     1  ZINC000444205493   -0.9500
     11 O11       -16.7058   -2.6512   59.2018 O.2     1  ZINC000444205493   -0.9500
     12 N12       -14.7816   -2.8968   57.6760 N.am    1  ZINC000444205493   -1.0100
     13 C13       -14.6766   -1.5563   57.0691 C.3     1  ZINC000444205493    0.1200
     14 C14       -13.5268   -1.6742   56.0349 C.3     1  ZINC000444205493   -0.1200
     15 C15       -13.7322   -3.1085   55.5103 C.3     1  ZINC000444205493   -0.0700
     16 C16       -14.7585   -3.1320   54.3728 C.3     1  ZINC000444205493   -0.1100
     17 C17       -13.8903   -3.1621   53.0875 C.3     1  ZINC000444205493   -0.1200
     18 C18       -12.6987   -4.0651   53.4962 C.3     1  ZINC000444205493   -0.1000
     19 H19       -12.9720   -5.1172   53.4150 H       1  ZINC000444205493    0.0700
     20 C20       -11.4754   -3.7625   52.6287 C.3     1  ZINC000444205493   -0.1500
     21 C21       -12.4259   -3.6896   54.9705 C.3     1  ZINC000444205493   -0.1100
     22 C22       -14.2288   -3.8852   56.7342 C.3     1  ZINC000444205493    0.1300
     23 C23       -13.0615   -2.3825   60.2704 C.ar    1  ZINC000444205493    0.0300
     24 C24       -12.2998   -1.6919   61.1933 C.ar    1  ZINC000444205493   -0.1500
     25 Br25      -10.4125   -1.7277   61.0797 Br      1  ZINC000444205493   -0.0300
     26 H26       -10.6780    2.7150   63.5104 H       1  ZINC000444205493    0.1000
     27 H27       -11.4765    1.8213   64.8266 H       1  ZINC000444205493    0.1000
     28 H28        -9.9902    1.1782   64.0878 H       1  ZINC000444205493    0.1000
     29 H29       -11.9175   -0.7030   63.9921 H       1  ZINC000444205493    0.4200
     30 H30       -14.7946   -0.3992   63.0781 H       1  ZINC000444205493    0.1600
     31 H31       -16.1418   -1.6252   61.4229 H       1  ZINC000444205493    0.1500
     32 H32       -15.6092   -1.2920   56.5705 H       1  ZINC000444205493    0.0800
     33 H33       -14.4287   -0.8149   57.8286 H       1  ZINC000444205493    0.0800
     34 H34       -13.6449   -0.9442   55.2340 H       1  ZINC000444205493    0.0900
     35 H35       -12.5549   -1.5696   56.5170 H       1  ZINC000444205493    0.0800
     36 H36       -15.3791   -4.0258   54.4361 H       1  ZINC000444205493    0.0700
     37 H37       -15.3760   -2.2341   54.3962 H       1  ZINC000444205493    0.0700
     38 H38       -14.4431   -3.6045   52.2588 H       1  ZINC000444205493    0.0700
     39 H39       -13.5452   -2.1604   52.8315 H       1  ZINC000444205493    0.0700
     40 H40       -11.2045   -2.7122   52.7363 H       1  ZINC000444205493    0.0500
     41 H41       -10.6409   -4.3874   52.9466 H       1  ZINC000444205493    0.0500
     42 H42       -11.7093   -3.9723   51.5849 H       1  ZINC000444205493    0.0500
     43 H43       -11.6325   -2.9443   55.0268 H       1  ZINC000444205493    0.0700
     44 H44       -12.1479   -4.5776   55.5382 H       1  ZINC000444205493    0.0700
     45 H45       -13.4002   -4.4231   57.1947 H       1  ZINC000444205493    0.0700
     46 H46       -15.0093   -4.5862   56.4383 H       1  ZINC000444205493    0.0800
     47 H47       -12.5787   -2.9400   59.4815 H       1  ZINC000444205493    0.1500
@<TRIPOS>BOND
     1     1     2    1
     2     1    26    1
     3     1    27    1
     4     1    28    1
     5     2     3    2
     6     2     4   am
     7     4     5    1
     8     4    29    1
     9     5    24   ar
    10     5     6   ar
    11     6     7   ar
    12     6    30    1
    13     7     8   ar
    14     7    31    1
    15     8     9    1
    16     8    23   ar
    17     9    10    2
    18     9    11    2
    19     9    12   am
    20    12    22    1
    21    12    13    1
    22    13    14    1
    23    13    32    1
    24    13    33    1
    25    14    15    1
    26    14    34    1
    27    14    35    1
    28    15    21    1
    29    15    16    1
    30    15    22    1
    31    16    17    1
    32    16    36    1
    33    16    37    1
    34    17    18    1
    35    17    38    1
    36    17    39    1
    37    18    19    1
    38    18    20    1
    39    18    21    1
    40    20    40    1
    41    20    41    1
    42    20    42    1
    43    21    43    1
    44    21    44    1
    45    22    45    1
    46    22    46    1
    47    23    24   ar
    48    23    47    1
    49    24    25    1
@<TRIPOS>SUBSTRUCTURE
     1 ZINC000444205493        1 TEMP              0 ****  ****    0 ROOT


##########                                Name:    ZINC000478980774
##########                DOCK_Rotatable_Bonds:                   4
##########                         Heavy_Atoms:                  26
##########                    Molecular_Weight:             401.818
##########                DOCK_Rotatable_Bonds:                   4
##########                       Formal_Charge:          -0.0100001
##########                     HBond_Acceptors:                   9
##########                        HBond_Donors:                   1
##########                         Heavy_Atoms:                  26
##########                          Grid_Score:          -29.338207
##########                     Grid_vdw_energy:          -29.761559
##########                      Grid_es_energy:            0.423351
##########           Internal_energy_repulsive:            7.552215

@<TRIPOS>MOLECULE
ZINC000478980774
 40 42 1 0 0
SMALL
USER_CHARGES


@<TRIPOS>ATOM
      1 C1        -10.1311   -1.0696   57.8786 C.3     1  ZINC000478980774   -0.1400
      2 C2        -10.3351   -2.2954   58.7710 C.3     1  ZINC000478980774   -0.4600
      3 H3         -9.4821   -2.9661   58.6678 H       1  ZINC000478980774    0.1500
      4 C4        -10.4579   -1.8564   60.2073 C.2     1  ZINC000478980774    0.5400
      5 O5        -11.1671   -2.4754   60.9723 O.2     1  ZINC000478980774   -0.5000
      6 N6         -9.7797   -0.7758   60.6420 N.am    1  ZINC000478980774   -0.6600
      7 C7         -9.8938   -0.3676   61.9773 C.ar    1  ZINC000478980774    0.1600
      8 C8         -9.1570   -1.0077   62.9642 C.ar    1  ZINC000478980774   -0.1200
      9 C9         -9.2689   -0.6065   64.2822 C.ar    1  ZINC000478980774   -0.0600
     10 C10       -10.1163    0.4351   64.6220 C.ar    1  ZINC000478980774    0.0100
     11 O11       -10.4026    1.0116   65.8268 O.3     1  ZINC000478980774   -0.2900
     12 C12       -11.0118    2.2776   65.5119 C.3     1  ZINC000478980774    0.5700
     13 F13       -11.9928    2.5995   66.4560 F       1  ZINC000478980774   -0.1100
     14 F14       -10.0442    3.2860   65.4472 F       1  ZINC000478980774   -0.1500
     15 O15       -11.6064    2.0592   64.2189 O.3     1  ZINC000478980774   -0.2800
     16 C16       -10.8569    1.0799   63.6335 C.ar    1  ZINC000478980774    0.0500
     17 C17       -10.7398    0.6811   62.3130 C.ar    1  ZINC000478980774   -0.0900
     18 S18       -11.8491   -3.1614   58.2720 S.o     1  ZINC000478980774    1.3000
     19 O19       -12.9651   -2.2976   58.4371 O.2     1  ZINC000478980774   -0.7800
     20 C20       -11.5791   -3.4695   56.5048 C.3     1  ZINC000478980774   -0.4300
     21 C21       -12.7702   -4.1952   55.9339 C.ar    1  ZINC000478980774   -0.0600
     22 C22       -13.4946   -5.0651   56.7265 C.ar    1  ZINC000478980774   -0.1100
     23 C23       -14.5873   -5.7310   56.2029 C.ar    1  ZINC000478980774   -0.1100
     24 C24       -14.9555   -5.5276   54.8863 C.ar    1  ZINC000478980774   -0.1100
     25 C25       -14.2316   -4.6577   54.0924 C.ar    1  ZINC000478980774   -0.1100
     26 C26       -13.1420   -3.9865   54.6175 C.ar    1  ZINC000478980774   -0.0300
     27 Cl27      -12.2324   -2.8939   53.6211 Cl      1  ZINC000478980774   -0.0600
     28 H28       -10.0423   -1.3872   56.8397 H       1  ZINC000478980774    0.0800
     29 H29       -10.9841   -0.3989   57.9819 H       1  ZINC000478980774    0.0700
     30 H30        -9.2215   -0.5492   58.1785 H       1  ZINC000478980774    0.0700
     31 H31        -9.2127   -0.2806   60.0303 H       1  ZINC000478980774    0.4200
     32 H32        -8.4958   -1.8205   62.7021 H       1  ZINC000478980774    0.1500
     33 H33        -8.6949   -1.1063   65.0483 H       1  ZINC000478980774    0.1500
     34 H34       -11.3092    1.1827   61.5446 H       1  ZINC000478980774    0.1600
     35 H35       -11.4495   -2.5197   55.9860 H       1  ZINC000478980774    0.1100
     36 H36       -10.6854   -4.0796   56.3748 H       1  ZINC000478980774    0.1300
     37 H37       -13.2070   -5.2249   57.7552 H       1  ZINC000478980774    0.1400
     38 H38       -15.1532   -6.4107   56.8228 H       1  ZINC000478980774    0.1300
     39 H39       -15.8086   -6.0486   54.4776 H       1  ZINC000478980774    0.1300
     40 H40       -14.5194   -4.4988   53.0637 H       1  ZINC000478980774    0.1300
@<TRIPOS>BOND
     1     1     2    1
     2     1    28    1
     3     1    29    1
     4     1    30    1
     5     2     3    1
     6     2     4    1
     7     2    18    1
     8     4     5    2
     9     4     6   am
    10     6     7    1
    11     6    31    1
    12     7    17   ar
    13     7     8   ar
    14     8     9   ar
    15     8    32    1
    16     9    10   ar
    17     9    33    1
    18    10    16   ar
    19    10    11    1
    20    11    12    1
    21    12    13    1
    22    12    14    1
    23    12    15    1
    24    15    16    1
    25    16    17   ar
    26    17    34    1
    27    18    19    2
    28    18    20    1
    29    20    21    1
    30    20    35    1
    31    20    36    1
    32    21    26   ar
    33    21    22   ar
    34    22    23   ar
    35    22    37    1
    36    23    24   ar
    37    23    38    1
    38    24    25   ar
    39    24    39    1
    40    25    26   ar
    41    25    40    1
    42    26    27    1
@<TRIPOS>SUBSTRUCTURE
     1 ZINC000478980774        1 TEMP              0 ****  ****    0 ROOT


##########                                Name:    ZINC000154446008
##########                DOCK_Rotatable_Bonds:                   5
##########                         Heavy_Atoms:                  24
##########                    Molecular_Weight:              349.41
##########                DOCK_Rotatable_Bonds:                   5
##########                       Formal_Charge:          -0.0199999
##########                     HBond_Acceptors:                   8
##########                        HBond_Donors:                   0
##########                         Heavy_Atoms:                  24
##########                          Grid_Score:          -29.307787
##########                     Grid_vdw_energy:          -29.714819
##########                      Grid_es_energy:            0.407032
##########           Internal_energy_repulsive:           14.512534

@<TRIPOS>MOLECULE
ZINC000154446008
 43 45 1 0 0
SMALL
USER_CHARGES


@<TRIPOS>ATOM
      1 O1         -9.5270   -0.8701   61.7659 O.2     1  ZINC000154446008   -0.5000
      2 C2        -10.3036   -0.7325   60.8390 C.2     1  ZINC000154446008    0.5900
      3 C3        -10.7363    0.6095   60.4384 C.2     1  ZINC000154446008   -0.2300
      4 C4        -11.6603    1.3732   61.0944 C.2     1  ZINC000154446008   -0.0600
      5 C5        -11.8770    2.5939   60.5004 C.2     1  ZINC000154446008   -0.0500
      6 C6        -11.1567    2.8238   59.3963 C.2     1  ZINC000154446008   -0.2100
      7 N7        -11.2251    4.0657   58.5936 N.pl3   1  ZINC000154446008    0.0500
      8 O8        -10.5453    4.1798   57.5893 O.2     1  ZINC000154446008   -0.1300
      9 O9        -11.9609    4.9734   58.9374 O.2     1  ZINC000154446008   -0.1500
     10 S10       -10.1439    1.4975   59.0412 S.3     1  ZINC000154446008    0.3500
     11 N11       -10.7614   -1.8137   60.1772 N.am    1  ZINC000154446008   -0.6100
     12 C12       -11.6900   -1.6619   59.0483 C.3     1  ZINC000154446008    0.0800
     13 C13       -11.0919   -2.3655   57.8238 C.3     1  ZINC000154446008    0.0900
     14 N14       -10.6711   -3.7173   58.2179 N.am    1  ZINC000154446008   -0.6100
     15 C15       -11.1282   -4.7985   57.5555 C.2     1  ZINC000154446008    0.5500
     16 O16       -10.7729   -5.9122   57.8910 O.2     1  ZINC000154446008   -0.5300
     17 C17       -12.0569   -4.6314   56.4271 C.2     1  ZINC000154446008   -0.1500
     18 C18       -11.5763   -4.1727   55.2917 C.2     1  ZINC000154446008   -0.1100
     19 C19       -12.4091   -3.9446   54.0640 C.3     1  ZINC000154446008   -0.1000
     20 C20       -13.7357   -4.6983   54.1801 C.3     1  ZINC000154446008   -0.1200
     21 C21       -14.3637   -4.3718   55.5406 C.3     1  ZINC000154446008   -0.1200
     22 C22       -13.4968   -4.9999   56.6358 C.3     1  ZINC000154446008   -0.0700
     23 C23        -9.7425   -3.8691   59.3469 C.3     1  ZINC000154446008    0.1000
     24 C24       -10.3361   -3.1652   60.5678 C.3     1  ZINC000154446008    0.1000
     25 H25       -12.1695    1.0500   61.9902 H       1  ZINC000154446008    0.1800
     26 H26       -12.5778    3.3144   60.8957 H       1  ZINC000154446008    0.1800
     27 H27       -12.6484   -2.1162   59.2994 H       1  ZINC000154446008    0.0900
     28 H28       -11.8302   -0.6033   58.8298 H       1  ZINC000154446008    0.0900
     29 H29       -11.8429   -2.4311   57.0365 H       1  ZINC000154446008    0.1100
     30 H30       -10.2295   -1.8041   57.4642 H       1  ZINC000154446008    0.0800
     31 H31       -10.5215   -3.9467   55.2400 H       1  ZINC000154446008    0.1100
     32 H32       -12.6077   -2.8785   53.9550 H       1  ZINC000154446008    0.0900
     33 H33       -11.8668   -4.3007   53.1881 H       1  ZINC000154446008    0.0800
     34 H34       -14.4072   -4.3828   53.3816 H       1  ZINC000154446008    0.0700
     35 H35       -13.5550   -5.7708   54.1080 H       1  ZINC000154446008    0.0700
     36 H36       -14.4038   -3.2910   55.6756 H       1  ZINC000154446008    0.0700
     37 H37       -15.3704   -4.7872   55.5884 H       1  ZINC000154446008    0.0700
     38 H38       -13.6061   -6.0840   56.6060 H       1  ZINC000154446008    0.0800
     39 H39       -13.8221   -4.6327   57.6092 H       1  ZINC000154446008    0.0700
     40 H40        -9.6023   -4.9277   59.5654 H       1  ZINC000154446008    0.1100
     41 H41        -8.7840   -3.4148   59.0958 H       1  ZINC000154446008    0.0800
     42 H42        -9.5842   -3.1003   61.3542 H       1  ZINC000154446008    0.1100
     43 H43       -11.1992   -3.7245   60.9288 H       1  ZINC000154446008    0.0800
@<TRIPOS>BOND
     1     1     2    2
     2     2     3    1
     3     2    11   am
     4     3    10    1
     5     3     4    2
     6     4     5    1
     7     4    25    1
     8     5     6    2
     9     5    26    1
    10     6     7    1
    11     6    10    1
    12     7     8    2
    13     7     9    2
    14    11    24    1
    15    11    12    1
    16    12    13    1
    17    12    27    1
    18    12    28    1
    19    13    14    1
    20    13    29    1
    21    13    30    1
    22    14    15   am
    23    14    23    1
    24    15    16    2
    25    15    17    1
    26    17    22    1
    27    17    18    2
    28    18    19    1
    29    18    31    1
    30    19    20    1
    31    19    32    1
    32    19    33    1
    33    20    21    1
    34    20    34    1
    35    20    35    1
    36    21    22    1
    37    21    36    1
    38    21    37    1
    39    22    38    1
    40    22    39    1
    41    23    24    1
    42    23    40    1
    43    23    41    1
    44    24    42    1
    45    24    43    1
@<TRIPOS>SUBSTRUCTURE
     1 ZINC000154446008        1 TEMP              0 ****  ****    0 ROOT


##########                                Name:    ZINC000863208514
##########                DOCK_Rotatable_Bonds:                   6
##########                         Heavy_Atoms:                  19
##########                    Molecular_Weight:             368.657
##########                DOCK_Rotatable_Bonds:                   6
##########                       Formal_Charge:           0.0100005
##########                     HBond_Acceptors:                   7
##########                        HBond_Donors:                   2
##########                         Heavy_Atoms:                  19
##########                          Grid_Score:          -29.251162
##########                     Grid_vdw_energy:          -29.184017
##########                      Grid_es_energy:           -0.067145
##########           Internal_energy_repulsive:            9.352651

@<TRIPOS>MOLECULE
ZINC000863208514
 31 31 1 0 0
SMALL
USER_CHARGES


@<TRIPOS>ATOM
      1 C1        -14.8650   -4.5519   54.6708 C.3     1  ZINC000863208514    0.0900
      2 N2        -13.7943   -4.6737   55.6634 N.am    1  ZINC000863208514   -0.6100
      3 C3        -13.7946   -5.7940   56.6073 C.3     1  ZINC000863208514    0.0700
      4 C4        -12.8092   -3.7549   55.7081 C.2     1  ZINC000863208514    0.5100
      5 O5        -12.8099   -2.8266   54.9277 O.2     1  ZINC000863208514   -0.5400
      6 C6        -11.7069   -3.8812   56.7279 C.3     1  ZINC000863208514    0.1100
      7 N7        -10.8787   -2.6730   56.7040 N.am    1  ZINC000863208514   -0.6600
      8 C8        -10.5070   -2.0878   57.8597 C.2     1  ZINC000863208514    0.5600
      9 S9         -9.5375   -0.6771   57.8317 S.2     1  ZINC000863208514   -0.6000
     10 N10       -10.8985   -2.6131   59.0375 N.am    1  ZINC000863208514   -0.6300
     11 C11       -10.5122   -2.0050   60.2385 C.ar    1  ZINC000863208514    0.1200
     12 C12       -11.1485   -0.8493   60.6686 C.ar    1  ZINC000863208514   -0.0300
     13 C13       -10.7656   -0.2510   61.8550 C.ar    1  ZINC000863208514   -0.0200
     14 Cl14      -11.5619    1.1945   62.3936 Cl      1  ZINC000863208514   -0.0300
     15 C15        -9.7484   -0.8036   62.6139 C.ar    1  ZINC000863208514   -0.0600
     16 Br16       -9.2279    0.0178   64.2357 Br      1  ZINC000863208514   -0.0100
     17 C17        -9.1120   -1.9563   62.1883 C.ar    1  ZINC000863208514   -0.1100
     18 C18        -9.4939   -2.5614   61.0053 C.ar    1  ZINC000863208514    0.1100
     19 F19        -8.8724   -3.6868   60.5899 F       1  ZINC000863208514   -0.1200
     20 H20       -15.5642   -5.3798   54.7872 H       1  ZINC000863208514    0.0800
     21 H21       -15.3910   -3.6086   54.8177 H       1  ZINC000863208514    0.0700
     22 H22       -14.4362   -4.5765   53.6689 H       1  ZINC000863208514    0.0700
     23 H23       -13.2434   -6.6307   56.1781 H       1  ZINC000863208514    0.0700
     24 H24       -13.3192   -5.4849   57.5381 H       1  ZINC000863208514    0.0800
     25 H25       -14.8213   -6.0999   56.8078 H       1  ZINC000863208514    0.0800
     26 H26       -12.1419   -4.0039   57.7198 H       1  ZINC000863208514    0.1200
     27 H27       -11.0909   -4.7488   56.4915 H       1  ZINC000863208514    0.1200
     28 H28       -10.5980   -2.2942   55.8563 H       1  ZINC000863208514    0.4100
     29 H29       -11.4479   -3.4125   59.0533 H       1  ZINC000863208514    0.4200
     30 H30       -11.9421   -0.4173   60.0770 H       1  ZINC000863208514    0.1800
     31 H31        -8.3185   -2.3854   62.7823 H       1  ZINC000863208514    0.1600
@<TRIPOS>BOND
     1     1     2    1
     2     1    20    1
     3     1    21    1
     4     1    22    1
     5     2     3    1
     6     2     4   am
     7     3    23    1
     8     3    24    1
     9     3    25    1
    10     4     5    2
    11     4     6    1
    12     6     7    1
    13     6    26    1
    14     6    27    1
    15     7     8   am
    16     7    28    1
    17     8     9    2
    18     8    10   am
    19    10    11    1
    20    10    29    1
    21    11    18   ar
    22    11    12   ar
    23    12    13   ar
    24    12    30    1
    25    13    14    1
    26    13    15   ar
    27    15    16    1
    28    15    17   ar
    29    17    18   ar
    30    17    31    1
    31    18    19    1
@<TRIPOS>SUBSTRUCTURE
     1 ZINC000863208514        1 TEMP              0 ****  ****    0 ROOT


##########                                Name:    ZINC000541315701
##########                DOCK_Rotatable_Bonds:                   4
##########                         Heavy_Atoms:                  25
##########                    Molecular_Weight:             422.709
##########                DOCK_Rotatable_Bonds:                   4
##########                       Formal_Charge:           0.0300003
##########                     HBond_Acceptors:                   6
##########                        HBond_Donors:                   0
##########                         Heavy_Atoms:                  25
##########                          Grid_Score:          -29.179596
##########                     Grid_vdw_energy:          -26.961040
##########                      Grid_es_energy:           -2.218555
##########           Internal_energy_repulsive:           18.766850

@<TRIPOS>MOLECULE
ZINC000541315701
 42 44 1 0 0
SMALL
USER_CHARGES


@<TRIPOS>ATOM
      1 C1        -10.1657    2.7127   58.2390 C.3     1  ZINC000541315701    0.0800
      2 N2         -9.3532    1.8054   57.4249 N.am    1  ZINC000541315701   -0.5700
      3 C3         -9.6521    0.4921   57.3774 C.2     1  ZINC000541315701    0.5400
      4 O4         -8.9795   -0.2589   56.7034 O.2     1  ZINC000541315701   -0.5000
      5 C5        -10.8223   -0.0431   58.1619 C.3     1  ZINC000541315701   -0.1100
      6 H6        -11.5404    0.7485   58.3762 H       1  ZINC000541315701    0.1300
      7 C7        -11.4985   -1.2165   57.4157 C.3     1  ZINC000541315701   -0.1500
      8 C8        -10.8290   -2.4500   57.9803 C.2     1  ZINC000541315701    0.5200
      9 O9        -10.8645   -3.5522   57.4754 O.2     1  ZINC000541315701   -0.5200
     10 N10       -10.1888   -2.1468   59.1226 N.am    1  ZINC000541315701   -0.6100
     11 C11        -9.4288   -3.1087   59.9248 C.3     1  ZINC000541315701    0.0900
     12 C12       -10.3489   -0.7273   59.4635 C.3     1  ZINC000541315701    0.1900
     13 H13        -9.3962   -0.3070   59.7859 H       1  ZINC000541315701    0.1100
     14 C14       -11.3832   -0.5645   60.5472 C.ar    1  ZINC000541315701   -0.0900
     15 C15       -11.3167    0.5136   61.4095 C.ar    1  ZINC000541315701   -0.1000
     16 C16       -12.2655    0.6639   62.4039 C.ar    1  ZINC000541315701   -0.1000
     17 C17       -13.2808   -0.2641   62.5364 C.ar    1  ZINC000541315701   -0.1000
     18 C18       -13.3481   -1.3436   61.6733 C.ar    1  ZINC000541315701   -0.0300
     19 Cl19      -14.6236   -2.5095   61.8387 Cl      1  ZINC000541315701   -0.0600
     20 C20       -12.4017   -1.4904   60.6751 C.ar    1  ZINC000541315701   -0.0900
     21 C21        -8.2705    2.3007   56.6991 C.ar    1  ZINC000541315701    0.3800
     22 N22        -7.1433    2.5993   57.3247 N.ar    1  ZINC000541315701   -0.4700
     23 C23        -6.0951    3.0699   56.6759 C.ar    1  ZINC000541315701    0.1300
     24 C24        -6.1380    3.2689   55.3104 C.ar    1  ZINC000541315701   -0.1600
     25 C25        -7.3018    2.9682   54.6157 C.ar    1  ZINC000541315701   -0.0400
     26 C26        -8.3830    2.4711   55.3229 C.ar    1  ZINC000541315701   -0.1300
     27 Br27       -9.9954    2.0423   54.4327 Br      1  ZINC000541315701   -0.0200
     28 H28       -10.5140    2.1887   59.1291 H       1  ZINC000541315701    0.0900
     29 H29        -9.5642    3.5721   58.5355 H       1  ZINC000541315701    0.0800
     30 H30       -11.0233    3.0524   57.6584 H       1  ZINC000541315701    0.0700
     31 H31       -12.5684   -1.2345   57.6231 H       1  ZINC000541315701    0.1200
     32 H32       -11.3179   -1.1414   56.3434 H       1  ZINC000541315701    0.1100
     33 H33        -9.4692   -4.0893   59.4507 H       1  ZINC000541315701    0.0900
     34 H34        -8.3913   -2.7824   59.9967 H       1  ZINC000541315701    0.0700
     35 H35        -9.8605   -3.1700   60.9238 H       1  ZINC000541315701    0.0600
     36 H36       -10.5228    1.2387   61.3069 H       1  ZINC000541315701    0.1300
     37 H37       -12.2130    1.5066   63.0774 H       1  ZINC000541315701    0.1400
     38 H38       -14.0217   -0.1470   63.3135 H       1  ZINC000541315701    0.1400
     39 H39       -12.4536   -2.3327   60.0013 H       1  ZINC000541315701    0.1400
     40 H40        -5.1919    3.3028   57.2204 H       1  ZINC000541315701    0.1700
     41 H41        -5.2750    3.6548   54.7879 H       1  ZINC000541315701    0.1500
     42 H42        -7.3609    3.1149   53.5474 H       1  ZINC000541315701    0.1500
@<TRIPOS>BOND
     1     1     2    1
     2     1    28    1
     3     1    29    1
     4     1    30    1
     5     2     3   am
     6     2    21    1
     7     3     4    2
     8     3     5    1
     9     5     6    1
    10     5    12    1
    11     5     7    1
    12     7     8    1
    13     7    31    1
    14     7    32    1
    15     8     9    2
    16     8    10   am
    17    10    11    1
    18    10    12    1
    19    11    33    1
    20    11    34    1
    21    11    35    1
    22    12    13    1
    23    12    14    1
    24    14    20   ar
    25    14    15   ar
    26    15    16   ar
    27    15    36    1
    28    16    17   ar
    29    16    37    1
    30    17    18   ar
    31    17    38    1
    32    18    19    1
    33    18    20   ar
    34    20    39    1
    35    21    26   ar
    36    21    22   ar
    37    22    23   ar
    38    23    24   ar
    39    23    40    1
    40    24    25   ar
    41    24    41    1
    42    25    26   ar
    43    25    42    1
    44    26    27    1
@<TRIPOS>SUBSTRUCTURE
     1 ZINC000541315701        1 TEMP              0 ****  ****    0 ROOT


##########                                Name:    ZINC000179211660
##########                DOCK_Rotatable_Bonds:                   6
##########                         Heavy_Atoms:                  23
##########                    Molecular_Weight:             385.208
##########                DOCK_Rotatable_Bonds:                   6
##########                       Formal_Charge:        -1.78814e-07
##########                     HBond_Acceptors:                   6
##########                        HBond_Donors:                   1
##########                         Heavy_Atoms:                  23
##########                          Grid_Score:          -29.154518
##########                     Grid_vdw_energy:          -28.915205
##########                      Grid_es_energy:           -0.239313
##########           Internal_energy_repulsive:           14.334179

@<TRIPOS>MOLECULE
ZINC000179211660
 38 39 1 0 0
SMALL
USER_CHARGES


@<TRIPOS>ATOM
      1 C1        -10.1596   -1.0533   52.7435 C.3     1  ZINC000179211660    0.0300
      2 O2        -10.9106   -2.2350   53.0292 O.3     1  ZINC000179211660   -0.2700
      3 C3        -12.2344   -2.2140   52.7224 C.ar    1  ZINC000179211660    0.1500
      4 C4        -12.7974   -1.0820   52.1516 C.ar    1  ZINC000179211660   -0.2200
      5 C5        -14.1434   -1.0633   51.8402 C.ar    1  ZINC000179211660   -0.0700
      6 C6        -14.9290   -2.1712   52.0974 C.ar    1  ZINC000179211660   -0.1700
      7 C7        -14.3702   -3.3008   52.6668 C.ar    1  ZINC000179211660   -0.0700
      8 C8        -13.0239   -3.3269   52.9744 C.ar    1  ZINC000179211660   -0.1500
      9 C9        -12.4155   -4.5583   53.5943 C.3     1  ZINC000179211660    0.1800
     10 N10       -12.8778   -4.6875   54.9785 N.am    1  ZINC000179211660   -0.6200
     11 C11       -14.0578   -5.5003   55.2838 C.3     1  ZINC000179211660    0.0700
     12 C12       -12.2176   -4.0584   55.9709 C.2     1  ZINC000179211660    0.7000
     13 O13       -11.2392   -3.3825   55.7172 O.2     1  ZINC000179211660   -0.5300
     14 N14       -12.6419   -4.1786   57.2444 N.am    1  ZINC000179211660   -0.6800
     15 C15       -11.9556   -3.5247   58.2761 C.ar    1  ZINC000179211660    0.1900
     16 C16       -10.7563   -4.0388   58.7477 C.ar    1  ZINC000179211660   -0.1400
     17 C17       -10.0801   -3.3908   59.7664 C.ar    1  ZINC000179211660    0.1500
     18 F18        -8.9122   -3.8908   60.2261 F       1  ZINC000179211660   -0.1100
     19 C19       -10.5996   -2.2298   60.3149 C.ar    1  ZINC000179211660   -0.1300
     20 Br20       -9.6727   -1.3464   61.7066 Br      1  ZINC000179211660   -0.0100
     21 C21       -11.7953   -1.7150   59.8460 C.ar    1  ZINC000179211660   -0.0700
     22 C22       -12.4724   -2.3563   58.8254 C.ar    1  ZINC000179211660    0.0600
     23 F23       -13.6398   -1.8531   58.3680 F       1  ZINC000179211660   -0.1300
     24 H24        -9.1203   -1.2037   53.0359 H       1  ZINC000179211660    0.1000
     25 H25       -10.2094   -0.8404   51.6757 H       1  ZINC000179211660    0.0500
     26 H26       -10.5761   -0.2144   53.3010 H       1  ZINC000179211660    0.0500
     27 H27       -12.1841   -0.2158   51.9512 H       1  ZINC000179211660    0.1300
     28 H28       -14.5821   -0.1821   51.3959 H       1  ZINC000179211660    0.1200
     29 H29       -15.9810   -2.1546   51.8537 H       1  ZINC000179211660    0.1200
     30 H30       -14.9862   -4.1651   52.8671 H       1  ZINC000179211660    0.1300
     31 H31       -12.7181   -5.4382   53.0266 H       1  ZINC000179211660    0.0900
     32 H32       -11.3290   -4.4731   53.5806 H       1  ZINC000179211660    0.1000
     33 H33       -13.7501   -6.5268   55.4830 H       1  ZINC000179211660    0.0600
     34 H34       -14.5609   -5.0949   56.1616 H       1  ZINC000179211660    0.0600
     35 H35       -14.7401   -5.4839   54.4339 H       1  ZINC000179211660    0.0800
     36 H36       -13.4224   -4.7177   57.4468 H       1  ZINC000179211660    0.4100
     37 H37       -10.3509   -4.9439   58.3203 H       1  ZINC000179211660    0.1800
     38 H38       -12.1982   -0.8096   60.2754 H       1  ZINC000179211660    0.1600
@<TRIPOS>BOND
     1     1     2    1
     2     1    24    1
     3     1    25    1
     4     1    26    1
     5     2     3    1
     6     3     8   ar
     7     3     4   ar
     8     4     5   ar
     9     4    27    1
    10     5     6   ar
    11     5    28    1
    12     6     7   ar
    13     6    29    1
    14     7     8   ar
    15     7    30    1
    16     8     9    1
    17     9    10    1
    18     9    31    1
    19     9    32    1
    20    10    11    1
    21    10    12   am
    22    11    33    1
    23    11    34    1
    24    11    35    1
    25    12    13    2
    26    12    14   am
    27    14    15    1
    28    14    36    1
    29    15    22   ar
    30    15    16   ar
    31    16    17   ar
    32    16    37    1
    33    17    18    1
    34    17    19   ar
    35    19    20    1
    36    19    21   ar
    37    21    22   ar
    38    21    38    1
    39    22    23    1
@<TRIPOS>SUBSTRUCTURE
     1 ZINC000179211660        1 TEMP              0 ****  ****    0 ROOT


##########                                Name:    ZINC001708427409
##########                DOCK_Rotatable_Bonds:                   6
##########                         Heavy_Atoms:                  24
##########                    Molecular_Weight:             334.505
##########                DOCK_Rotatable_Bonds:                   6
##########                       Formal_Charge:          -0.0200006
##########                     HBond_Acceptors:                   5
##########                        HBond_Donors:                   1
##########                         Heavy_Atoms:                  24
##########                          Grid_Score:          -29.117371
##########                     Grid_vdw_energy:          -29.078161
##########                      Grid_es_energy:           -0.039210
##########           Internal_energy_repulsive:           17.795456

@<TRIPOS>MOLECULE
ZINC001708427409
 58 60 1 0 0
SMALL
USER_CHARGES


@<TRIPOS>ATOM
      1 C1        -10.7921   -3.3683   52.7732 C.3     1  ZINC001708427409   -0.1500
      2 C2        -11.9138   -2.4070   52.3753 C.3     1  ZINC001708427409   -0.1200
      3 C3        -13.1756   -2.7365   53.1753 C.3     1  ZINC001708427409    0.0000
      4 H4        -13.2305   -3.8126   53.3404 H       1  ZINC001708427409    0.0800
      5 C5        -14.4088   -2.2768   52.3950 C.3     1  ZINC001708427409   -0.1400
      6 C6        -13.1281   -2.0264   54.5036 C.2     1  ZINC001708427409    0.1800
      7 N7        -13.2226   -0.7411   54.6960 N.2     1  ZINC001708427409   -0.2800
      8 N8        -13.1428   -0.4763   55.9511 N.2     1  ZINC001708427409   -0.3200
      9 C9        -12.9918   -1.5875   56.6325 C.2     1  ZINC001708427409    0.3600
     10 N10       -12.8699   -1.7000   58.0084 N.3     1  ZINC001708427409   -0.4200
     11 C11       -13.8997   -0.8797   58.7044 C.3     1  ZINC001708427409    0.0400
     12 C12       -13.3234   -0.6395   60.1170 C.3     1  ZINC001708427409   -0.0900
     13 H13       -13.7410   -1.3569   60.8234 H       1  ZINC001708427409    0.0900
     14 C14       -13.6185    0.7900   60.5755 C.3     1  ZINC001708427409   -0.1500
     15 C15       -11.7935   -0.8560   59.9694 C.3     1  ZINC001708427409   -0.0800
     16 H16       -11.2391    0.0253   60.2918 H       1  ZINC001708427409    0.0900
     17 C17       -11.4276   -2.0743   60.8177 C.3     1  ZINC001708427409   -0.1100
     18 C18       -10.0104   -2.5343   60.4771 C.3     1  ZINC001708427409   -0.1200
     19 C19        -9.9964   -3.0294   59.0325 C.3     1  ZINC001708427409   -0.1100
     20 C20       -10.3955   -1.9189   58.0821 C.3     1  ZINC001708427409   -0.1000
     21 C21       -11.5966   -1.1119   58.4775 C.3     1  ZINC001708427409    0.1000
     22 H22       -11.5057   -0.1416   57.9894 H       1  ZINC001708427409    0.0600
     23 N23       -12.9837   -2.6117   55.7309 N.pl3   1  ZINC001708427409   -0.4700
     24 C24       -12.8399   -4.0412   56.0176 C.3     1  ZINC001708427409    0.0800
     25 C25       -14.2253   -4.6817   56.1247 C.3     1  ZINC001708427409    0.1200
     26 C26       -14.1125   -6.1862   55.8703 C.3     1  ZINC001708427409   -0.1800
     27 C27       -14.7909   -4.4424   57.5259 C.3     1  ZINC001708427409   -0.1500
     28 O28       -15.0961   -4.0983   55.1534 O.3     1  ZINC001708427409   -0.5400
     29 H29       -11.0992   -4.3925   52.5617 H       1  ZINC001708427409    0.0600
     30 H30        -9.8931   -3.1335   52.2032 H       1  ZINC001708427409    0.0600
     31 H31       -10.5847   -3.2637   53.8381 H       1  ZINC001708427409    0.0500
     32 H32       -11.6067   -1.3827   52.5868 H       1  ZINC001708427409    0.0700
     33 H33       -12.1212   -2.5115   51.3104 H       1  ZINC001708427409    0.0800
     34 H34       -14.4433   -2.7904   51.4343 H       1  ZINC001708427409    0.0700
     35 H35       -15.3078   -2.5116   52.9650 H       1  ZINC001708427409    0.0500
     36 H36       -14.3540   -1.2007   52.2300 H       1  ZINC001708427409    0.0700
     37 H37       -14.0431    0.0688   58.1867 H       1  ZINC001708427409    0.0600
     38 H38       -14.8414   -1.4253   58.7664 H       1  ZINC001708427409    0.0800
     39 H39       -14.6968    0.9407   60.6244 H       1  ZINC001708427409    0.0600
     40 H40       -13.1838    0.9523   61.5618 H       1  ZINC001708427409    0.0600
     41 H41       -13.1849    1.4956   59.8668 H       1  ZINC001708427409    0.0600
     42 H42       -11.4785   -1.8091   61.8738 H       1  ZINC001708427409    0.0600
     43 H43       -12.1299   -2.8824   60.6136 H       1  ZINC001708427409    0.0700
     44 H44        -9.3184   -1.6992   60.5847 H       1  ZINC001708427409    0.0600
     45 H45        -9.7180   -3.3447   61.1448 H       1  ZINC001708427409    0.0600
     46 H46        -8.9936   -3.3743   58.7808 H       1  ZINC001708427409    0.0600
     47 H47       -10.6968   -3.8584   58.9302 H       1  ZINC001708427409    0.0600
     48 H48        -9.5536   -1.2334   57.9856 H       1  ZINC001708427409    0.0600
     49 H49       -10.5848   -2.3592   57.1032 H       1  ZINC001708427409    0.0700
     50 H50       -12.2800   -4.5185   55.2134 H       1  ZINC001708427409    0.0900
     51 H51       -12.3058   -4.1711   56.9590 H       1  ZINC001708427409    0.1000
     52 H52       -13.4483   -6.6312   56.6111 H       1  ZINC001708427409    0.0700
     53 H53       -15.0995   -6.6425   55.9464 H       1  ZINC001708427409    0.0700
     54 H54       -13.7095   -6.3567   54.8720 H       1  ZINC001708427409    0.0600
     55 H55       -14.7941   -3.3734   57.7388 H       1  ZINC001708427409    0.0700
     56 H56       -15.8099   -4.8261   57.5769 H       1  ZINC001708427409    0.0700
     57 H57       -14.1717   -4.9572   58.2606 H       1  ZINC001708427409    0.0700
     58 H58       -15.9746   -4.5013   55.1203 H       1  ZINC001708427409    0.3800
@<TRIPOS>BOND
     1     1     2    1
     2     1    29    1
     3     1    30    1
     4     1    31    1
     5     2     3    1
     6     2    32    1
     7     2    33    1
     8     3     4    1
     9     3     5    1
    10     3     6    1
    11     5    34    1
    12     5    35    1
    13     5    36    1
    14     6    23    1
    15     6     7    2
    16     7     8    1
    17     8     9    2
    18     9    10    1
    19     9    23    1
    20    10    21    1
    21    10    11    1
    22    11    12    1
    23    11    37    1
    24    11    38    1
    25    12    13    1
    26    12    14    1
    27    12    15    1
    28    14    39    1
    29    14    40    1
    30    14    41    1
    31    15    16    1
    32    15    21    1
    33    15    17    1
    34    17    18    1
    35    17    42    1
    36    17    43    1
    37    18    19    1
    38    18    44    1
    39    18    45    1
    40    19    20    1
    41    19    46    1
    42    19    47    1
    43    20    21    1
    44    20    48    1
    45    20    49    1
    46    21    22    1
    47    23    24    1
    48    24    25    1
    49    24    50    1
    50    24    51    1
    51    25    26    1
    52    25    27    1
    53    25    28    1
    54    26    52    1
    55    26    53    1
    56    26    54    1
    57    27    55    1
    58    27    56    1
    59    27    57    1
    60    28    58    1
@<TRIPOS>SUBSTRUCTURE
     1 ZINC001708427409        1 TEMP              0 ****  ****    0 ROOT


##########                                Name:    ZINC000876376999
##########                DOCK_Rotatable_Bonds:                   7
##########                         Heavy_Atoms:                  24
##########                    Molecular_Weight:             358.502
##########                DOCK_Rotatable_Bonds:                   7
##########                       Formal_Charge:          -0.0299994
##########                     HBond_Acceptors:                   7
##########                        HBond_Donors:                   2
##########                         Heavy_Atoms:                  24
##########                          Grid_Score:          -29.040873
##########                     Grid_vdw_energy:          -28.805746
##########                      Grid_es_energy:           -0.235126
##########           Internal_energy_repulsive:           35.363995

@<TRIPOS>MOLECULE
ZINC000876376999
 54 56 1 0 0
SMALL
USER_CHARGES


@<TRIPOS>ATOM
      1 C1        -10.7763    1.5797   62.9730 C.3     1  ZINC000876376999   -0.1500
      2 C2        -11.9425    0.6533   62.6226 C.3     1  ZINC000876376999   -0.1100
      3 C3        -11.5682   -0.2016   61.4102 C.3     1  ZINC000876376999   -0.0700
      4 C4        -11.3017    0.7063   60.2079 C.3     1  ZINC000876376999    0.0900
      5 O5        -12.4145    1.5819   60.0162 O.3     1  ZINC000876376999   -0.5600
      6 C6        -10.3103   -1.0138   61.7265 C.3     1  ZINC000876376999   -0.1100
      7 C7         -9.9162   -1.8445   60.5031 C.3     1  ZINC000876376999   -0.1400
      8 C8        -11.0491   -2.8192   60.1662 C.3     1  ZINC000876376999    0.1100
      9 N9        -12.2950   -2.0579   60.0028 N.am    1  ZINC000876376999   -0.6300
     10 C10       -13.0345   -2.1830   58.8830 C.2     1  ZINC000876376999    0.7100
     11 O11       -14.0637   -1.5476   58.7598 O.2     1  ZINC000876376999   -0.5800
     12 N12       -12.6330   -3.0128   57.8997 N.am    1  ZINC000876376999   -0.7500
     13 C13       -13.4368   -3.1489   56.6824 C.3     1  ZINC000876376999    0.1400
     14 C14       -12.6270   -3.8965   55.6160 C.3     1  ZINC000876376999   -0.1100
     15 C15       -13.5387   -4.4354   54.5475 C.3     1  ZINC000876376999   -0.1100
     16 C16       -13.6314   -3.6043   53.2625 C.3     1  ZINC000876376999   -0.5200
     17 H17       -14.3283   -4.0175   52.5200 H       1  ZINC000876376999    0.1500
     18 C18       -13.9706   -2.1523   53.6701 C.3     1  ZINC000876376999   -0.1200
     19 C19       -12.7178   -1.3893   54.0866 C.3     1  ZINC000876376999   -0.1200
     20 C20       -11.4596   -2.2818   53.9843 C.3     1  ZINC000876376999   -0.5300
     21 H21       -10.5428   -1.7120   53.7782 H       1  ZINC000876376999    0.1500
     22 C22       -11.3852   -3.1241   55.2632 C.3     1  ZINC000876376999   -0.1000
     23 S23       -11.9078   -3.4498   52.6332 S.o2    1  ZINC000876376999    2.3700
     24 O24       -11.2136   -4.6782   52.7954 O.2     1  ZINC000876376999   -0.9300
     25 O25       -11.9020   -2.7765   51.3821 O.2     1  ZINC000876376999   -0.9300
     26 C26       -12.7198   -1.1577   61.0835 C.3     1  ZINC000876376999    0.1400
     27 H27        -9.9205    0.9830   63.2888 H       1  ZINC000876376999    0.0500
     28 H28       -10.5048    2.1691   62.0973 H       1  ZINC000876376999    0.0600
     29 H29       -11.0727    2.2466   63.7825 H       1  ZINC000876376999    0.0500
     30 H30       -12.1591    0.0047   63.4715 H       1  ZINC000876376999    0.0600
     31 H31       -12.8233    1.2508   62.3879 H       1  ZINC000876376999    0.0700
     32 H32       -10.4028    1.2955   60.3897 H       1  ZINC000876376999    0.0500
     33 H33       -11.1616    0.0960   59.3157 H       1  ZINC000876376999    0.0400
     34 H34       -12.2891    2.2283   59.3080 H       1  ZINC000876376999    0.3800
     35 H35        -9.4958   -0.3366   61.9834 H       1  ZINC000876376999    0.0700
     36 H36       -10.5089   -1.6780   62.5678 H       1  ZINC000876376999    0.0700
     37 H37        -9.7416   -1.1826   59.6549 H       1  ZINC000876376999    0.0700
     38 H38        -9.0071   -2.4049   60.7212 H       1  ZINC000876376999    0.0800
     39 H39       -10.8167   -3.3431   59.2390 H       1  ZINC000876376999    0.0700
     40 H40       -11.1645   -3.5393   60.9762 H       1  ZINC000876376999    0.0700
     41 H41       -11.8120   -3.5199   57.9980 H       1  ZINC000876376999    0.3900
     42 H42       -14.3450   -3.7080   56.9073 H       1  ZINC000876376999    0.0800
     43 H43       -13.7022   -2.1595   56.3097 H       1  ZINC000876376999    0.0700
     44 H44       -12.2516   -4.8094   56.1592 H       1  ZINC000876376999    0.0900
     45 H45       -13.2129   -5.4563   54.2817 H       1  ZINC000876376999    0.0900
     46 H46       -14.5540   -4.5479   54.9662 H       1  ZINC000876376999    0.0900
     47 H47       -14.4184   -1.6424   52.8116 H       1  ZINC000876376999    0.0800
     48 H48       -14.6915   -2.1529   54.4825 H       1  ZINC000876376999    0.0900
     49 H49       -12.5948   -0.5318   53.4178 H       1  ZINC000876376999    0.0800
     50 H50       -12.8294   -1.0190   55.1015 H       1  ZINC000876376999    0.0900
     51 H51       -11.1250   -2.4599   56.1058 H       1  ZINC000876376999    0.0900
     52 H52       -10.5407   -3.8292   55.1697 H       1  ZINC000876376999    0.0900
     53 H53       -12.9714   -1.7423   61.9684 H       1  ZINC000876376999    0.0600
     54 H54       -13.5898   -0.5852   60.7617 H       1  ZINC000876376999    0.1000
@<TRIPOS>BOND
     1     1     2    1
     2     1    27    1
     3     1    28    1
     4     1    29    1
     5     2     3    1
     6     2    30    1
     7     2    31    1
     8     3    26    1
     9     3     4    1
    10     3     6    1
    11     4     5    1
    12     4    32    1
    13     4    33    1
    14     5    34    1
    15     6     7    1
    16     6    35    1
    17     6    36    1
    18     7     8    1
    19     7    37    1
    20     7    38    1
    21     8     9    1
    22     8    39    1
    23     8    40    1
    24     9    10   am
    25     9    26    1
    26    10    11    2
    27    10    12   am
    28    12    13    1
    29    12    41    1
    30    13    14    1
    31    13    42    1
    32    13    43    1
    33    14    22    1
    34    14    15    1
    35    14    44    1
    36    15    16    1
    37    15    45    1
    38    15    46    1
    39    16    17    1
    40    16    23    1
    41    16    18    1
    42    18    19    1
    43    18    47    1
    44    18    48    1
    45    19    20    1
    46    19    49    1
    47    19    50    1
    48    20    21    1
    49    20    22    1
    50    20    23    1
    51    22    51    1
    52    22    52    1
    53    23    24    2
    54    23    25    2
    55    26    53    1
    56    26    54    1
@<TRIPOS>SUBSTRUCTURE
     1 ZINC000876376999        1 TEMP              0 ****  ****    0 ROOT


##########                                Name:    ZINC000469391664
##########                DOCK_Rotatable_Bonds:                   6
##########                         Heavy_Atoms:                  29
##########                    Molecular_Weight:             408.524
##########                DOCK_Rotatable_Bonds:                   6
##########                       Formal_Charge:         -0.00999999
##########                     HBond_Acceptors:                   7
##########                        HBond_Donors:                   0
##########                         Heavy_Atoms:                  29
##########                          Grid_Score:          -28.989384
##########                     Grid_vdw_energy:          -26.729670
##########                      Grid_es_energy:           -2.259715
##########           Internal_energy_repulsive:           25.881397

@<TRIPOS>MOLECULE
ZINC000469391664
 53 56 1 0 0
SMALL
USER_CHARGES


@<TRIPOS>ATOM
      1 C1         -9.7752   -2.2263   58.7007 C.3     1  ZINC000469391664   -0.1500
      2 C2        -10.0446   -1.0627   59.6570 C.3     1  ZINC000469391664   -0.1000
      3 H3         -9.0982   -0.6806   60.0396 H       1  ZINC000469391664    0.0800
      4 C4        -10.9065   -1.5507   60.8236 C.3     1  ZINC000469391664   -0.1300
      5 C5        -11.1454   -0.3918   61.7965 C.3     1  ZINC000469391664    0.1100
      6 N6        -11.7192    0.7386   61.0537 N.am    1  ZINC000469391664   -0.6100
      7 C7        -12.8681    1.3147   61.4596 C.2     1  ZINC000469391664    0.5600
      8 O8        -13.3329    2.2496   60.8363 O.2     1  ZINC000469391664   -0.5000
      9 C9        -13.5616    0.8111   62.6600 C.ar    1  ZINC000469391664   -0.1100
     10 C10       -13.2112    1.2869   63.9254 C.ar    1  ZINC000469391664   -0.0900
     11 C11       -13.8634    0.8127   65.0432 C.ar    1  ZINC000469391664   -0.1000
     12 C12       -14.8659   -0.1354   64.9189 C.ar    1  ZINC000469391664   -0.0900
     13 C13       -15.2231   -0.6157   63.6749 C.ar    1  ZINC000469391664   -0.1000
     14 C14       -14.5815   -0.1451   62.5370 C.ar    1  ZINC000469391664    0.1500
     15 N15       -14.9398   -0.6278   61.2819 N.am    1  ZINC000469391664   -0.5800
     16 C16       -15.6410    0.2427   60.3349 C.3     1  ZINC000469391664    0.0900
     17 C17       -14.6418   -1.8964   60.9375 C.2     1  ZINC000469391664    0.6100
     18 O18       -14.0593   -2.6196   61.7243 O.2     1  ZINC000469391664   -0.5200
     19 C19       -15.0190   -2.4047   59.6161 C.2     1  ZINC000469391664   -0.2600
     20 C20       -15.6346   -3.6007   59.3727 C.2     1  ZINC000469391664   -0.0500
     21 C21       -15.8739   -3.8270   58.0381 C.2     1  ZINC000469391664   -0.1500
     22 C22       -15.4695   -2.8521   57.2154 C.2     1  ZINC000469391664   -0.2600
     23 S23       -14.7594   -1.5708   58.0900 S.3     1  ZINC000469391664    0.2300
     24 C24       -11.0168    1.2293   59.8603 C.3     1  ZINC000469391664    0.1000
     25 C25       -10.7796    0.0520   58.9091 C.3     1  ZINC000469391664    0.1300
     26 H26       -11.7375   -0.3222   58.5476 H       1  ZINC000469391664    0.1000
     27 N27        -9.9681    0.4967   57.7733 N.pl3   1  ZINC000469391664   -0.4500
     28 C28       -10.0340    0.0199   56.4920 C.2     1  ZINC000469391664   -0.0500
     29 C29        -9.1205    0.7020   55.7750 C.2     1  ZINC000469391664   -0.0300
     30 N30        -8.5135    1.5714   56.5962 N.2     1  ZINC000469391664   -0.4900
     31 C31        -9.0196    1.4577   57.7937 C.2     1  ZINC000469391664    0.1800
     32 H32        -9.1608   -1.8791   57.8700 H       1  ZINC000469391664    0.0600
     33 H33        -9.2512   -3.0202   59.2331 H       1  ZINC000469391664    0.0600
     34 H34       -10.7213   -2.6086   58.3180 H       1  ZINC000469391664    0.0600
     35 H35       -11.8630   -1.9099   60.4439 H       1  ZINC000469391664    0.0700
     36 H36       -10.3929   -2.3605   61.3417 H       1  ZINC000469391664    0.0900
     37 H37       -11.8389   -0.7063   62.5764 H       1  ZINC000469391664    0.1000
     38 H38       -10.1990   -0.0909   62.2459 H       1  ZINC000469391664    0.0800
     39 H39       -12.4300    2.0254   64.0279 H       1  ZINC000469391664    0.1400
     40 H40       -13.5914    1.1818   66.0209 H       1  ZINC000469391664    0.1400
     41 H41       -15.3709   -0.5012   65.8007 H       1  ZINC000469391664    0.1400
     42 H42       -16.0053   -1.3550   63.5863 H       1  ZINC000469391664    0.1400
     43 H43       -14.9182    0.7050   59.6626 H       1  ZINC000469391664    0.0600
     44 H44       -16.3505   -0.3478   59.7553 H       1  ZINC000469391664    0.0900
     45 H45       -16.1759    1.0187   60.8824 H       1  ZINC000469391664    0.0700
     46 H46       -15.9055   -4.2984   60.1512 H       1  ZINC000469391664    0.1500
     47 H47       -16.3530   -4.7262   57.6797 H       1  ZINC000469391664    0.1400
     48 H48       -15.5814   -2.8719   56.1413 H       1  ZINC000469391664    0.1600
     49 H49       -11.6253    1.9842   59.3625 H       1  ZINC000469391664    0.1000
     50 H50       -10.0598    1.6623   60.1517 H       1  ZINC000469391664    0.0800
     51 H51       -10.6918   -0.7547   56.1263 H       1  ZINC000469391664    0.1700
     52 H52        -8.9131    0.5715   54.7231 H       1  ZINC000469391664    0.1700
     53 H53        -8.7240    2.0322   58.6592 H       1  ZINC000469391664    0.2000
@<TRIPOS>BOND
     1     1     2    1
     2     1    32    1
     3     1    33    1
     4     1    34    1
     5     2     3    1
     6     2    25    1
     7     2     4    1
     8     4     5    1
     9     4    35    1
    10     4    36    1
    11     5     6    1
    12     5    37    1
    13     5    38    1
    14     6     7   am
    15     6    24    1
    16     7     8    2
    17     7     9    1
    18     9    14   ar
    19     9    10   ar
    20    10    11   ar
    21    10    39    1
    22    11    12   ar
    23    11    40    1
    24    12    13   ar
    25    12    41    1
    26    13    14   ar
    27    13    42    1
    28    14    15    1
    29    15    16    1
    30    15    17   am
    31    16    43    1
    32    16    44    1
    33    16    45    1
    34    17    18    2
    35    17    19    1
    36    19    23    1
    37    19    20    2
    38    20    21    1
    39    20    46    1
    40    21    22    2
    41    21    47    1
    42    22    23    1
    43    22    48    1
    44    24    25    1
    45    24    49    1
    46    24    50    1
    47    25    26    1
    48    25    27    1
    49    27    31    1
    50    27    28    1
    51    28    29    2
    52    28    51    1
    53    29    30    1
    54    29    52    1
    55    30    31    2
    56    31    53    1
@<TRIPOS>SUBSTRUCTURE
     1 ZINC000469391664        1 TEMP              0 ****  ****    0 ROOT


##########                                Name:    ZINC000928803822
##########                DOCK_Rotatable_Bonds:                   7
##########                         Heavy_Atoms:                  21
##########                    Molecular_Weight:             364.165
##########                DOCK_Rotatable_Bonds:                   7
##########                       Formal_Charge:         -0.00999978
##########                     HBond_Acceptors:                   7
##########                        HBond_Donors:                   1
##########                         Heavy_Atoms:                  21
##########                          Grid_Score:          -28.939056
##########                     Grid_vdw_energy:          -28.598946
##########                      Grid_es_energy:           -0.340111
##########           Internal_energy_repulsive:            7.239812

@<TRIPOS>MOLECULE
ZINC000928803822
 34 34 1 0 0
SMALL
USER_CHARGES


@<TRIPOS>ATOM
      1 C1        -11.1969   -2.9730   52.0649 C.3     1  ZINC000928803822    0.0900
      2 N2        -12.4506   -2.8110   52.8054 N.pl3   1  ZINC000928803822   -0.6300
      3 C3        -13.6659   -2.3890   52.1047 C.3     1  ZINC000928803822    0.0900
      4 C4        -12.4871   -3.0592   54.1798 C.ar    1  ZINC000928803822    0.2200
      5 C5        -13.2831   -4.0826   54.6800 C.ar    1  ZINC000928803822   -0.1500
      6 C6        -13.3226   -4.3322   56.0401 C.ar    1  ZINC000928803822   -0.0500
      7 Br7       -14.4083   -5.7274   56.7112 Br      1  ZINC000928803822   -0.0400
      8 C8        -12.5714   -3.5659   56.9091 C.ar    1  ZINC000928803822   -0.1200
      9 C9        -11.7688   -2.5357   56.4159 C.ar    1  ZINC000928803822   -0.0800
     10 C10       -10.9634   -1.7137   57.3443 C.2     1  ZINC000928803822    0.5700
     11 O11       -10.1980   -0.8766   56.9072 O.2     1  ZINC000928803822   -0.5100
     12 N12       -11.0780   -1.8924   58.6752 N.am    1  ZINC000928803822   -0.7200
     13 C13       -10.2788   -1.0792   59.5950 C.3     1  ZINC000928803822    0.1100
     14 H14        -9.4290   -0.6550   59.0602 H       1  ZINC000928803822    0.1400
     15 C15        -9.7731   -1.9555   60.7427 C.3     1  ZINC000928803822   -0.0300
     16 C16        -9.2002   -3.1966   60.1968 C.1     1  ZINC000928803822    0.2000
     17 N17        -8.7580   -4.1544   59.7754 N.1     1  ZINC000928803822   -0.4000
     18 C18       -11.1424    0.0510   60.1586 C.3     1  ZINC000928803822    0.4400
     19 F19       -12.3189   -0.4838   60.6942 F       1  ZINC000928803822   -0.1800
     20 F20       -10.4357    0.7217   61.1626 F       1  ZINC000928803822   -0.1700
     21 F21       -11.4622    0.9486   59.1343 F       1  ZINC000928803822   -0.1600
     22 C22       -11.7247   -2.2879   55.0442 C.ar    1  ZINC000928803822   -0.1200
     23 H23       -10.6504   -2.0299   52.0650 H       1  ZINC000928803822    0.0600
     24 H24       -10.5909   -3.7442   52.5406 H       1  ZINC000928803822    0.0700
     25 H25       -11.4166   -3.2655   51.0381 H       1  ZINC000928803822    0.0700
     26 H26       -14.2029   -3.2675   51.7471 H       1  ZINC000928803822    0.0500
     27 H27       -14.3027   -1.8270   52.7879 H       1  ZINC000928803822    0.0700
     28 H28       -13.3964   -1.7582   51.2576 H       1  ZINC000928803822    0.0700
     29 H29       -13.8730   -4.6848   54.0049 H       1  ZINC000928803822    0.1400
     30 H30       -12.6051   -3.7635   57.9703 H       1  ZINC000928803822    0.1300
     31 H31       -11.6897   -2.5595   59.0241 H       1  ZINC000928803822    0.4100
     32 H32        -9.0075   -1.4168   61.3012 H       1  ZINC000928803822    0.1400
     33 H33       -10.6027   -2.1995   61.4064 H       1  ZINC000928803822    0.1300
     34 H34       -11.1056   -1.4922   54.6571 H       1  ZINC000928803822    0.1500
@<TRIPOS>BOND
     1     1     2    1
     2     1    23    1
     3     1    24    1
     4     1    25    1
     5     2     3    1
     6     2     4    1
     7     3    26    1
     8     3    27    1
     9     3    28    1
    10     4    22   ar
    11     4     5   ar
    12     5     6   ar
    13     5    29    1
    14     6     7    1
    15     6     8   ar
    16     8     9   ar
    17     8    30    1
    18     9    10    1
    19     9    22   ar
    20    10    11    2
    21    10    12   am
    22    12    13    1
    23    12    31    1
    24    13    14    1
    25    13    15    1
    26    13    18    1
    27    15    16    1
    28    15    32    1
    29    15    33    1
    30    16    17    3
    31    18    19    1
    32    18    20    1
    33    18    21    1
    34    22    34    1
@<TRIPOS>SUBSTRUCTURE
     1 ZINC000928803822        1 TEMP              0 ****  ****    0 ROOT


##########                                Name:    ZINC000055987960
##########                DOCK_Rotatable_Bonds:                   6
##########                         Heavy_Atoms:                  28
##########                    Molecular_Weight:             404.868
##########                DOCK_Rotatable_Bonds:                   6
##########                       Formal_Charge:          0.00999941
##########                     HBond_Acceptors:                   7
##########                        HBond_Donors:                   1
##########                         Heavy_Atoms:                  28
##########                          Grid_Score:          -28.937813
##########                     Grid_vdw_energy:          -27.380325
##########                      Grid_es_energy:           -1.557487
##########           Internal_energy_repulsive:           13.763533

@<TRIPOS>MOLECULE
ZINC000055987960
 50 52 1 0 0
SMALL
USER_CHARGES


@<TRIPOS>ATOM
      1 C1         -3.7473    2.7349   52.1218 C.3     1  ZINC000055987960   -0.1800
      2 C2         -3.3276    3.9802   52.9052 C.3     1  ZINC000055987960    0.0700
      3 H3         -2.5667    4.5235   52.3449 H       1  ZINC000055987960    0.1200
      4 C4         -4.5468    4.8839   53.1218 C.3     1  ZINC000055987960    0.0800
      5 N5         -5.4764    4.1984   54.0335 N.am    1  ZINC000055987960   -0.6100
      6 C6         -6.7812    4.0655   53.7230 C.2     1  ZINC000055987960    0.5700
      7 O7         -7.2058    4.5154   52.6763 O.2     1  ZINC000055987960   -0.5300
      8 C8         -7.6945    3.3740   54.6536 C.ar    1  ZINC000055987960   -0.1500
      9 C9         -8.2298    2.1287   54.3134 C.ar    1  ZINC000055987960   -0.0700
     10 C10        -9.0811    1.4861   55.1839 C.ar    1  ZINC000055987960   -0.1500
     11 C11        -9.4087    2.0752   56.4011 C.ar    1  ZINC000055987960    0.1700
     12 N12       -10.2709    1.4215   57.2805 N.am    1  ZINC000055987960   -0.6700
     13 C13        -9.8613    0.3108   57.9249 C.2     1  ZINC000055987960    0.5200
     14 O14        -8.7428   -0.1200   57.7398 O.2     1  ZINC000055987960   -0.5000
     15 C15       -10.7931   -0.3958   58.8755 C.3     1  ZINC000055987960   -0.1100
     16 C16       -10.7295   -1.8813   58.6300 C.ar    1  ZINC000055987960   -0.1000
     17 C17       -10.1368   -2.7128   59.5644 C.ar    1  ZINC000055987960    0.1300
     18 F18        -9.6148   -2.1931   60.6970 F       1  ZINC000055987960   -0.1300
     19 C19       -10.0794   -4.0779   59.3378 C.ar    1  ZINC000055987960   -0.1500
     20 C20       -10.6137   -4.6090   58.1795 C.ar    1  ZINC000055987960   -0.0700
     21 C21       -11.2058   -3.7785   57.2461 C.ar    1  ZINC000055987960   -0.1200
     22 C22       -11.2687   -2.4153   57.4733 C.ar    1  ZINC000055987960    0.0000
     23 Cl23      -12.0129   -1.3734   56.3010 Cl      1  ZINC000055987960   -0.0500
     24 C24        -8.8776    3.3149   56.7428 C.ar    1  ZINC000055987960   -0.1200
     25 C25        -8.0216    3.9604   55.8792 C.ar    1  ZINC000055987960   -0.0500
     26 C26        -4.9393    3.6620   55.2942 C.3     1  ZINC000055987960    0.0600
     27 C27        -3.7010    2.8178   54.9718 C.3     1  ZINC000055987960    0.0700
     28 H28        -4.0014    1.9265   54.4210 H       1  ZINC000055987960    0.0700
     29 C29        -3.0102    2.4060   56.2733 C.3     1  ZINC000055987960   -0.1500
     30 O30        -2.7983    3.5900   54.1745 O.3     1  ZINC000055987960   -0.3700
     31 H31        -4.5082    2.1921   52.6826 H       1  ZINC000055987960    0.0600
     32 H32        -4.1524    3.0333   51.1548 H       1  ZINC000055987960    0.0700
     33 H33        -2.8804    2.0920   51.9697 H       1  ZINC000055987960    0.0700
     34 H34        -4.2296    5.8288   53.5630 H       1  ZINC000055987960    0.0800
     35 H35        -5.0393    5.0708   52.1676 H       1  ZINC000055987960    0.1000
     36 H36        -7.9762    1.6710   53.3687 H       1  ZINC000055987960    0.1400
     37 H37        -9.4954    0.5238   54.9215 H       1  ZINC000055987960    0.1300
     38 H38       -11.1655    1.7659   57.4285 H       1  ZINC000055987960    0.4200
     39 H39       -10.4940   -0.1840   59.9021 H       1  ZINC000055987960    0.1200
     40 H40       -11.8121   -0.0442   58.7141 H       1  ZINC000055987960    0.1200
     41 H41        -9.6167   -4.7272   60.0663 H       1  ZINC000055987960    0.1500
     42 H42       -10.5685   -5.6735   58.0029 H       1  ZINC000055987960    0.1500
     43 H43       -11.6228   -4.1946   56.3410 H       1  ZINC000055987960    0.1400
     44 H44        -9.1342    3.7697   57.6882 H       1  ZINC000055987960    0.1500
     45 H45        -7.6095    4.9227   56.1450 H       1  ZINC000055987960    0.1300
     46 H46        -4.6617    4.4839   55.9541 H       1  ZINC000055987960    0.0800
     47 H47        -5.6918    3.0398   55.7785 H       1  ZINC000055987960    0.1100
     48 H48        -3.7001    1.8208   56.8813 H       1  ZINC000055987960    0.0700
     49 H49        -2.1299    1.8058   56.0432 H       1  ZINC000055987960    0.0700
     50 H50        -2.7085    3.2979   56.8225 H       1  ZINC000055987960    0.0700
@<TRIPOS>BOND
     1     1     2    1
     2     1    31    1
     3     1    32    1
     4     1    33    1
     5     2     3    1
     6     2    30    1
     7     2     4    1
     8     4     5    1
     9     4    34    1
    10     4    35    1
    11     5     6   am
    12     5    26    1
    13     6     7    2
    14     6     8    1
    15     8    25   ar
    16     8     9   ar
    17     9    10   ar
    18     9    36    1
    19    10    11   ar
    20    10    37    1
    21    11    12    1
    22    11    24   ar
    23    12    13   am
    24    12    38    1
    25    13    14    2
    26    13    15    1
    27    15    16    1
    28    15    39    1
    29    15    40    1
    30    16    22   ar
    31    16    17   ar
    32    17    18    1
    33    17    19   ar
    34    19    20   ar
    35    19    41    1
    36    20    21   ar
    37    20    42    1
    38    21    22   ar
    39    21    43    1
    40    22    23    1
    41    24    25   ar
    42    24    44    1
    43    25    45    1
    44    26    27    1
    45    26    46    1
    46    26    47    1
    47    27    28    1
    48    27    29    1
    49    27    30    1
    50    29    48    1
    51    29    49    1
    52    29    50    1
@<TRIPOS>SUBSTRUCTURE
     1 ZINC000055987960        1 TEMP              0 ****  ****    0 ROOT


##########                                Name:    ZINC000543429378
##########                DOCK_Rotatable_Bonds:                   6
##########                         Heavy_Atoms:                  29
##########                    Molecular_Weight:             406.408
##########                DOCK_Rotatable_Bonds:                   6
##########                       Formal_Charge:           0.0100003
##########                     HBond_Acceptors:                   9
##########                        HBond_Donors:                   1
##########                         Heavy_Atoms:                  29
##########                          Grid_Score:          -28.930750
##########                     Grid_vdw_energy:          -27.933756
##########                      Grid_es_energy:           -0.996995
##########           Internal_energy_repulsive:           42.802673

@<TRIPOS>MOLECULE
ZINC000543429378
 50 53 1 0 0
SMALL
USER_CHARGES


@<TRIPOS>ATOM
      1 O1        -12.3473   -2.3057   61.1451 O.2     1  ZINC000543429378   -0.5100
      2 C2        -12.3386   -1.2889   60.4841 C.2     1  ZINC000543429378    0.5200
      3 N3        -13.0244   -1.2325   59.3253 N.am    1  ZINC000543429378   -0.6600
      4 C4        -13.7419   -2.3489   58.8819 C.ar    1  ZINC000543429378    0.1900
      5 C5        -14.7361   -2.8986   59.6808 C.ar    1  ZINC000543429378   -0.1600
      6 C6        -15.4449   -4.0008   59.2427 C.ar    1  ZINC000543429378   -0.0600
      7 C7        -15.1666   -4.5590   58.0099 C.ar    1  ZINC000543429378   -0.2100
      8 C8        -14.1740   -4.0137   57.2072 C.ar    1  ZINC000543429378    0.1300
      9 O9        -13.9013   -4.5639   55.9949 O.3     1  ZINC000543429378   -0.3100
     10 C10       -12.9052   -3.9187   55.1989 C.3     1  ZINC000543429378    0.6000
     11 F11       -11.6839   -3.9295   55.8812 F       1  ZINC000543429378   -0.1600
     12 F12       -12.7667   -4.5986   53.9840 F       1  ZINC000543429378   -0.1300
     13 F13       -13.2898   -2.5966   54.9521 F       1  ZINC000543429378   -0.1600
     14 C14       -13.4648   -2.9049   57.6407 C.ar    1  ZINC000543429378   -0.1300
     15 C15       -11.5658   -0.0864   60.9616 C.3     1  ZINC000543429378    0.0700
     16 H16       -11.3404    0.5683   60.1199 H       1  ZINC000543429378    0.1200
     17 C17       -10.2479   -0.5417   61.6461 C.3     1  ZINC000543429378   -0.1200
     18 C18       -10.1374    0.4534   62.8116 C.3     1  ZINC000543429378   -0.1000
     19 H19        -9.7675    1.4195   62.4684 H       1  ZINC000543429378    0.0900
     20 C20        -9.3448   -0.0381   64.0108 C.3     1  ZINC000543429378   -0.1100
     21 C21        -9.4581    1.0359   65.1044 C.3     1  ZINC000543429378   -0.1200
     22 C22       -10.9132    1.3019   65.4785 C.3     1  ZINC000543429378   -0.1100
     23 C23       -11.7517    1.6680   64.2425 C.3     1  ZINC000543429378   -0.0900
     24 C24       -11.6266    0.5417   63.2430 C.3     1  ZINC000543429378    0.0700
     25 H25       -11.8967   -0.3980   63.7248 H       1  ZINC000543429378    0.0900
     26 N26       -12.3568    0.6523   61.9803 N.3     1  ZINC000543429378   -0.4300
     27 C27       -13.6271    0.1142   62.0930 C.ar    1  ZINC000543429378    0.5000
     28 N28       -13.8483   -0.8401   62.9851 N.ar    1  ZINC000543429378   -0.5300
     29 C29       -15.0506   -1.3753   63.1187 C.ar    1  ZINC000543429378    0.1800
     30 C30       -16.0841   -0.9259   62.3118 C.ar    1  ZINC000543429378   -0.2500
     31 C31       -15.8179    0.0737   61.3893 C.ar    1  ZINC000543429378    0.1800
     32 N32       -14.5941    0.5696   61.3102 N.ar    1  ZINC000543429378   -0.5300
     33 H33       -13.0206   -0.4179   58.7987 H       1  ZINC000543429378    0.4200
     34 H34       -14.9551   -2.4646   60.6452 H       1  ZINC000543429378    0.1400
     35 H35       -16.2176   -4.4269   59.8653 H       1  ZINC000543429378    0.1400
     36 H36       -15.7218   -5.4209   57.6704 H       1  ZINC000543429378    0.1400
     37 H37       -12.6922   -2.4792   57.0175 H       1  ZINC000543429378    0.1500
     38 H38       -10.3325   -1.5644   62.0136 H       1  ZINC000543429378    0.0800
     39 H39        -9.4011   -0.4419   60.9669 H       1  ZINC000543429378    0.0900
     40 H40        -9.7615   -0.9790   64.3704 H       1  ZINC000543429378    0.0700
     41 H41        -8.2998   -0.1762   63.7335 H       1  ZINC000543429378    0.0700
     42 H42        -8.9182    0.7009   65.9901 H       1  ZINC000543429378    0.0600
     43 H43        -9.0085    1.9608   64.7433 H       1  ZINC000543429378    0.0600
     44 H44       -11.3316    0.4079   65.9412 H       1  ZINC000543429378    0.0600
     45 H45       -10.9533    2.1239   66.1930 H       1  ZINC000543429378    0.0700
     46 H46       -12.7959    1.7963   64.5276 H       1  ZINC000543429378    0.0700
     47 H47       -11.3727    2.5877   63.7966 H       1  ZINC000543429378    0.0700
     48 H48       -15.2246   -2.1531   63.8473 H       1  ZINC000543429378    0.1600
     49 H49       -17.0753   -1.3458   62.3998 H       1  ZINC000543429378    0.1400
     50 H50       -16.6010    0.4458   60.7453 H       1  ZINC000543429378    0.1600
@<TRIPOS>BOND
     1     1     2    2
     2     2     3   am
     3     2    15    1
     4     3     4    1
     5     3    33    1
     6     4    14   ar
     7     4     5   ar
     8     5     6   ar
     9     5    34    1
    10     6     7   ar
    11     6    35    1
    12     7     8   ar
    13     7    36    1
    14     8     9    1
    15     8    14   ar
    16     9    10    1
    17    10    11    1
    18    10    12    1
    19    10    13    1
    20    14    37    1
    21    15    16    1
    22    15    26    1
    23    15    17    1
    24    17    18    1
    25    17    38    1
    26    17    39    1
    27    18    19    1
    28    18    24    1
    29    18    20    1
    30    20    21    1
    31    20    40    1
    32    20    41    1
    33    21    22    1
    34    21    42    1
    35    21    43    1
    36    22    23    1
    37    22    44    1
    38    22    45    1
    39    23    24    1
    40    23    46    1
    41    23    47    1
    42    24    25    1
    43    24    26    1
    44    26    27    1
    45    27    32   ar
    46    27    28   ar
    47    28    29   ar
    48    29    30   ar
    49    29    48    1
    50    30    31   ar
    51    30    49    1
    52    31    32   ar
    53    31    50    1
@<TRIPOS>SUBSTRUCTURE
     1 ZINC000543429378        1 TEMP              0 ****  ****    0 ROOT


##########                                Name:    ZINC000010935976
##########                DOCK_Rotatable_Bonds:                   3
##########                         Heavy_Atoms:                  26
##########                    Molecular_Weight:             391.558
##########                DOCK_Rotatable_Bonds:                   3
##########                       Formal_Charge:         -0.00999979
##########                     HBond_Acceptors:                   7
##########                        HBond_Donors:                   1
##########                         Heavy_Atoms:                  26
##########                          Grid_Score:          -28.920088
##########                     Grid_vdw_energy:          -28.652197
##########                      Grid_es_energy:           -0.267890
##########           Internal_energy_repulsive:          126.523071

@<TRIPOS>MOLECULE
ZINC000010935976
 51 54 1 0 0
SMALL
USER_CHARGES


@<TRIPOS>ATOM
      1 C1         -9.8204   -3.0796   60.2642 C.3     1  ZINC000010935976   -0.0800
      2 C2        -10.1261   -2.2979   59.0127 C.2     1  ZINC000010935976   -0.2100
      3 C3        -10.7476   -2.7924   57.9599 C.2     1  ZINC000010935976   -0.0400
      4 C4        -11.2275   -4.2196   57.8966 C.3     1  ZINC000010935976   -0.1000
      5 C5        -10.9341   -1.8559   56.8672 C.2     1  ZINC000010935976   -0.2300
      6 C6        -10.4079   -0.5993   57.1587 C.2     1  ZINC000010935976    0.0900
      7 N7        -10.4977    0.3895   56.2471 N.2     1  ZINC000010935976   -0.4900
      8 C8        -11.0717    0.2007   55.0832 C.2     1  ZINC000010935976    0.3400
      9 S9        -11.1541    1.5374   53.9382 S.3     1  ZINC000010935976    0.0500
     10 C10       -10.0560    2.7207   54.7567 C.3     1  ZINC000010935976   -0.1000
     11 H11       -10.2941    2.7667   55.8194 H       1  ZINC000010935976    0.1400
     12 C12       -10.2331    4.1056   54.1295 C.3     1  ZINC000010935976   -0.1000
     13 C13       -10.5121    3.9904   52.6419 C.3     1  ZINC000010935976   -0.1300
     14 C14        -9.3424    3.4512   51.8390 C.3     1  ZINC000010935976   -0.1400
     15 C15        -9.0632    1.9901   52.1964 C.3     1  ZINC000010935976    0.0700
     16 N16        -8.1659    1.9535   53.3626 N.am    1  ZINC000010935976   -0.7200
     17 C17        -8.6162    2.2876   54.5763 C.2     1  ZINC000010935976    0.5400
     18 O18        -7.8684    2.2487   55.5303 O.2     1  ZINC000010935976   -0.5200
     19 N19       -11.6064   -1.0065   54.7374 N.am    1  ZINC000010935976   -0.5100
     20 C20       -12.2384   -1.1758   53.4266 C.3     1  ZINC000010935976    0.1200
     21 C21       -11.3198   -1.9981   52.4993 C.3     1  ZINC000010935976   -0.1300
     22 C22       -11.8422   -3.4497   52.6372 C.3     1  ZINC000010935976   -0.1300
     23 C23       -13.3761   -3.2540   52.7263 C.3     1  ZINC000010935976   -0.1100
     24 C24       -13.5458   -1.9743   53.5710 C.3     1  ZINC000010935976   -0.1200
     25 C25       -11.5546   -2.0435   55.5958 C.2     1  ZINC000010935976    0.5600
     26 O26       -12.0309   -3.1238   55.2922 O.2     1  ZINC000010935976   -0.5000
     27 S27        -9.7077   -0.6123   58.7723 S.3     1  ZINC000010935976    0.2100
     28 H28        -9.3069   -2.4358   60.9784 H       1  ZINC000010935976    0.0700
     29 H29       -10.7504   -3.4403   60.7036 H       1  ZINC000010935976    0.0800
     30 H30        -9.1828   -3.9281   60.0160 H       1  ZINC000010935976    0.0800
     31 H31       -12.2460   -4.2778   58.2806 H       1  ZINC000010935976    0.0700
     32 H32       -11.2088   -4.5636   56.8626 H       1  ZINC000010935976    0.0800
     33 H33       -10.5748   -4.8494   58.5011 H       1  ZINC000010935976    0.0700
     34 H34       -11.0672    4.6144   54.6128 H       1  ZINC000010935976    0.0900
     35 H35        -9.3234    4.6869   54.2802 H       1  ZINC000010935976    0.0900
     36 H36       -11.3668    3.3295   52.4985 H       1  ZINC000010935976    0.0700
     37 H37       -10.7712    4.9775   52.2591 H       1  ZINC000010935976    0.0800
     38 H38        -9.5740    3.5223   50.7763 H       1  ZINC000010935976    0.0800
     39 H39        -8.4557    4.0481   52.0525 H       1  ZINC000010935976    0.0700
     40 H40        -9.9995    1.4877   52.4394 H       1  ZINC000010935976    0.1100
     41 H41        -8.5864    1.4918   51.3522 H       1  ZINC000010935976    0.0900
     42 H42        -7.2412    1.6826   53.2508 H       1  ZINC000010935976    0.4000
     43 H43       -12.4429   -0.2016   52.9825 H       1  ZINC000010935976    0.1000
     44 H44       -11.4129   -1.6555   51.4687 H       1  ZINC000010935976    0.0800
     45 H45       -10.2840   -1.9321   52.8321 H       1  ZINC000010935976    0.0700
     46 H46       -11.5785   -4.0401   51.7597 H       1  ZINC000010935976    0.0600
     47 H47       -11.4586   -3.9136   53.5459 H       1  ZINC000010935976    0.1100
     48 H48       -13.8012   -3.1141   51.7324 H       1  ZINC000010935976    0.0600
     49 H49       -13.8409   -4.1045   53.2248 H       1  ZINC000010935976    0.0700
     50 H50       -13.7100   -2.2359   54.6162 H       1  ZINC000010935976    0.0800
     51 H51       -14.3847   -1.3879   53.1961 H       1  ZINC000010935976    0.0700
@<TRIPOS>BOND
     1     1     2    1
     2     1    28    1
     3     1    29    1
     4     1    30    1
     5     2    27    1
     6     2     3    2
     7     3     4    1
     8     3     5    1
     9     4    31    1
    10     4    32    1
    11     4    33    1
    12     5    25    1
    13     5     6    2
    14     6     7    1
    15     6    27    1
    16     7     8    2
    17     8     9    1
    18     8    19    1
    19     9    10    1
    20    10    11    1
    21    10    17    1
    22    10    12    1
    23    12    13    1
    24    12    34    1
    25    12    35    1
    26    13    14    1
    27    13    36    1
    28    13    37    1
    29    14    15    1
    30    14    38    1
    31    14    39    1
    32    15    16    1
    33    15    40    1
    34    15    41    1
    35    16    17   am
    36    16    42    1
    37    17    18    2
    38    19    20    1
    39    19    25   am
    40    20    24    1
    41    20    21    1
    42    20    43    1
    43    21    22    1
    44    21    44    1
    45    21    45    1
    46    22    23    1
    47    22    46    1
    48    22    47    1
    49    23    24    1
    50    23    48    1
    51    23    49    1
    52    24    50    1
    53    24    51    1
    54    25    26    2
@<TRIPOS>SUBSTRUCTURE
     1 ZINC000010935976        1 TEMP              0 ****  ****    0 ROOT


##########                                Name:    ZINC000616491533
##########                DOCK_Rotatable_Bonds:                   4
##########                         Heavy_Atoms:                  27
##########                    Molecular_Weight:             375.418
##########                DOCK_Rotatable_Bonds:                   4
##########                       Formal_Charge:           0.0299996
##########                     HBond_Acceptors:                   7
##########                        HBond_Donors:                   0
##########                         Heavy_Atoms:                  27
##########                          Grid_Score:          -28.865942
##########                     Grid_vdw_energy:          -28.379452
##########                      Grid_es_energy:           -0.486490
##########           Internal_energy_repulsive:           10.946242

@<TRIPOS>MOLECULE
ZINC000616491533
 50 53 1 0 0
SMALL
USER_CHARGES


@<TRIPOS>ATOM
      1 C1        -14.5992   -3.5412   53.4579 C.3     1  ZINC000616491533   -0.1700
      2 C2        -13.1277   -3.9603   53.4524 C.3     1  ZINC000616491533    0.1400
      3 H3        -13.0455   -5.0212   53.2159 H       1  ZINC000616491533    0.0800
      4 C4        -12.3485   -3.1279   52.4102 C.3     1  ZINC000616491533   -0.1200
      5 C5        -11.7036   -2.0196   53.2683 C.3     1  ZINC000616491533   -0.0700
      6 C6        -11.3999   -2.7522   54.5891 C.3     1  ZINC000616491533    0.0900
      7 N7        -12.5268   -3.6932   54.7680 N.am    1  ZINC000616491533   -0.6100
      8 C8        -12.9351   -4.2149   55.9416 C.2     1  ZINC000616491533    0.6100
      9 O9        -13.8799   -4.9800   55.9710 O.2     1  ZINC000616491533   -0.5200
     10 C10       -12.2366   -3.8581   57.1897 C.2     1  ZINC000616491533   -0.2400
     11 C11       -12.6151   -2.8829   58.0907 C.2     1  ZINC000616491533    0.0700
     12 C12       -13.8201   -1.9849   57.9799 C.3     1  ZINC000616491533    0.3400
     13 F13       -14.0301   -1.6495   56.6380 F       1  ZINC000616491533   -0.1900
     14 F14       -14.9456   -2.6516   58.4756 F       1  ZINC000616491533   -0.1600
     15 N15       -11.7100   -2.8825   59.0862 N.pl3   1  ZINC000616491533   -0.2900
     16 C16       -11.7249   -2.0406   60.2067 C.ar    1  ZINC000616491533    0.1300
     17 C17       -10.6234   -1.2457   60.4943 C.ar    1  ZINC000616491533   -0.1000
     18 C18       -10.6412   -0.4171   61.5991 C.ar    1  ZINC000616491533   -0.1000
     19 C19       -11.7543   -0.3790   62.4188 C.ar    1  ZINC000616491533   -0.1000
     20 C20       -12.8527   -1.1695   62.1350 C.ar    1  ZINC000616491533   -0.1000
     21 C21       -12.8435   -1.9955   61.0281 C.ar    1  ZINC000616491533   -0.0900
     22 N22       -10.7511   -3.8646   58.8137 N.2     1  ZINC000616491533   -0.2600
     23 C23       -11.0574   -4.4546   57.6910 C.2     1  ZINC000616491533    0.0700
     24 C24       -10.4200   -1.5186   52.6223 C.3     1  ZINC000616491533   -0.1400
     25 C25        -9.8320   -0.3896   53.4759 C.3     1  ZINC000616491533    0.0600
     26 O26       -10.8104    0.6400   53.6354 O.3     1  ZINC000616491533   -0.3800
     27 C27       -11.9976    0.2224   54.3126 C.3     1  ZINC000616491533    0.0600
     28 C28       -12.6847   -0.8790   53.4976 C.3     1  ZINC000616491533   -0.1500
     29 H29       -14.6746   -2.4829   53.7072 H       1  ZINC000616491533    0.0600
     30 H30       -15.0298   -3.7138   52.4715 H       1  ZINC000616491533    0.0600
     31 H31       -15.1414   -4.1287   54.1989 H       1  ZINC000616491533    0.0800
     32 H32       -11.5837   -3.7347   51.9253 H       1  ZINC000616491533    0.0800
     33 H33       -13.0273   -2.6992   51.6729 H       1  ZINC000616491533    0.0900
     34 H34       -10.4597   -3.2983   54.5127 H       1  ZINC000616491533    0.0800
     35 H35       -11.3620   -2.0434   55.4164 H       1  ZINC000616491533    0.0800
     36 H36       -13.6512   -1.0771   58.5590 H       1  ZINC000616491533    0.1400
     37 H37        -9.7535   -1.2755   59.8549 H       1  ZINC000616491533    0.1300
     38 H38        -9.7847    0.2014   61.8234 H       1  ZINC000616491533    0.1400
     39 H39       -11.7654    0.2691   63.2826 H       1  ZINC000616491533    0.1300
     40 H40       -13.7206   -1.1376   62.7769 H       1  ZINC000616491533    0.1400
     41 H41       -13.7017   -2.6128   60.8069 H       1  ZINC000616491533    0.1300
     42 H42       -10.5032   -5.2548   57.2233 H       1  ZINC000616491533    0.2100
     43 H43        -9.7025   -2.3365   52.5563 H       1  ZINC000616491533    0.0800
     44 H44       -10.6381   -1.1434   51.6224 H       1  ZINC000616491533    0.0800
     45 H45        -9.5524   -0.7807   54.4541 H       1  ZINC000616491533    0.0500
     46 H46        -8.9508    0.0193   52.9814 H       1  ZINC000616491533    0.1000
     47 H47       -11.7377   -0.1630   55.2985 H       1  ZINC000616491533    0.0500
     48 H48       -12.6731    1.0711   54.4194 H       1  ZINC000616491533    0.1000
     49 H49       -13.0043   -0.4752   52.5369 H       1  ZINC000616491533    0.0800
     50 H50       -13.5519   -1.2492   54.0443 H       1  ZINC000616491533    0.0800
@<TRIPOS>BOND
     1     1     2    1
     2     1    29    1
     3     1    30    1
     4     1    31    1
     5     2     3    1
     6     2     7    1
     7     2     4    1
     8     4     5    1
     9     4    32    1
    10     4    33    1
    11     5    28    1
    12     5     6    1
    13     5    24    1
    14     6     7    1
    15     6    34    1
    16     6    35    1
    17     7     8   am
    18     8     9    2
    19     8    10    1
    20    10    23    1
    21    10    11    2
    22    11    12    1
    23    11    15    1
    24    12    13    1
    25    12    14    1
    26    12    36    1
    27    15    16    1
    28    15    22    1
    29    16    21   ar
    30    16    17   ar
    31    17    18   ar
    32    17    37    1
    33    18    19   ar
    34    18    38    1
    35    19    20   ar
    36    19    39    1
    37    20    21   ar
    38    20    40    1
    39    21    41    1
    40    22    23    2
    41    23    42    1
    42    24    25    1
    43    24    43    1
    44    24    44    1
    45    25    26    1
    46    25    45    1
    47    25    46    1
    48    26    27    1
    49    27    28    1
    50    27    47    1
    51    27    48    1
    52    28    49    1
    53    28    50    1
@<TRIPOS>SUBSTRUCTURE
     1 ZINC000616491533        1 TEMP              0 ****  ****    0 ROOT


##########                                Name:    ZINC000482139334
##########                DOCK_Rotatable_Bonds:                   4
##########                         Heavy_Atoms:                  26
##########                    Molecular_Weight:             348.376
##########                DOCK_Rotatable_Bonds:                   4
##########                       Formal_Charge:           0.0300002
##########                     HBond_Acceptors:                   5
##########                        HBond_Donors:                   1
##########                         Heavy_Atoms:                  26
##########                          Grid_Score:          -28.843191
##########                     Grid_vdw_energy:          -27.954889
##########                      Grid_es_energy:           -0.888301
##########           Internal_energy_repulsive:           15.463582

@<TRIPOS>MOLECULE
ZINC000482139334
 43 47 1 0 0
SMALL
USER_CHARGES


@<TRIPOS>ATOM
      1 O1         -2.3206    3.0689   46.0624 O.2     1  ZINC000482139334   -0.4800
      2 C2         -2.4966    2.1950   46.8846 C.2     1  ZINC000482139334    0.5500
      3 N3         -2.2979    0.9047   46.5496 N.am    1  ZINC000482139334   -0.6100
      4 C4         -1.8981    0.5762   45.2637 C.2     1  ZINC000482139334    0.4300
      5 N5         -0.7840    0.9569   44.6932 N.2     1  ZINC000482139334   -0.4800
      6 C6         -0.7437    0.4384   43.4379 C.2     1  ZINC000482139334    0.0400
      7 C7          0.3441    0.6221   42.4458 C.ar    1  ZINC000482139334   -0.0500
      8 C8          1.4888    1.3383   42.7879 C.ar    1  ZINC000482139334   -0.0800
      9 C9          2.4983    1.5059   41.8612 C.ar    1  ZINC000482139334   -0.1300
     10 C10         2.3757    0.9649   40.5943 C.ar    1  ZINC000482139334   -0.0800
     11 C11         1.2419    0.2529   40.2469 C.ar    1  ZINC000482139334   -0.1600
     12 C12         0.2271    0.0730   41.1680 C.ar    1  ZINC000482139334    0.1300
     13 F13        -0.8802   -0.6226   40.8284 F       1  ZINC000482139334   -0.1200
     14 C14        -1.8792   -0.2772   43.2596 C.2     1  ZINC000482139334   -0.0600
     15 O15        -2.5883   -0.1890   44.4042 O.3     1  ZINC000482139334   -0.1800
     16 C16        -2.9313    2.5521   48.2827 C.3     1  ZINC000482139334   -0.1800
     17 H17        -3.5233    3.4629   48.3728 H       1  ZINC000482139334    0.1400
     18 C18        -3.2547    1.4007   49.2387 C.3     1  ZINC000482139334   -0.1200
     19 C19        -1.9787    2.2160   49.4235 C.3     1  ZINC000482139334   -0.0500
     20 C20        -0.5958    1.6007   49.1517 C.3     1  ZINC000482139334   -0.0700
     21 C21         0.0784    1.6865   50.5390 C.3     1  ZINC000482139334   -0.0900
     22 C22        -0.6075    2.8379   51.2441 C.ar    1  ZINC000482139334   -0.0800
     23 C23        -0.2242    3.5623   52.3596 C.ar    1  ZINC000482139334   -0.1100
     24 C24        -1.0223    4.5855   52.8332 C.ar    1  ZINC000482139334   -0.1100
     25 C25        -2.2086    4.8877   52.1916 C.ar    1  ZINC000482139334   -0.1200
     26 C26        -2.5932    4.1666   51.0781 C.ar    1  ZINC000482139334   -0.1000
     27 C27        -1.7951    3.1407   50.6007 C.ar    1  ZINC000482139334   -0.0700
     28 H28        -2.4348    0.2060   47.2083 H       1  ZINC000482139334    0.4400
     29 H29         1.5864    1.7622   43.7765 H       1  ZINC000482139334    0.1300
     30 H30         3.3860    2.0611   42.1263 H       1  ZINC000482139334    0.1400
     31 H31         3.1684    1.0994   39.8731 H       1  ZINC000482139334    0.1400
     32 H32         1.1512   -0.1668   39.2559 H       1  ZINC000482139334    0.1400
     33 H33        -2.1626   -0.8197   42.3698 H       1  ZINC000482139334    0.2200
     34 H34        -4.0588    1.5544   49.9583 H       1  ZINC000482139334    0.1200
     35 H35        -3.1529    0.3850   48.8564 H       1  ZINC000482139334    0.1100
     36 H36        -0.6890    0.5637   48.8291 H       1  ZINC000482139334    0.0800
     37 H37        -0.0469    2.1892   48.4165 H       1  ZINC000482139334    0.0900
     38 H38        -0.0748    0.7597   51.0917 H       1  ZINC000482139334    0.0800
     39 H39         1.1435    1.8908   50.4297 H       1  ZINC000482139334    0.0800
     40 H40         0.7024    3.3264   52.8618 H       1  ZINC000482139334    0.1200
     41 H41        -0.7199    5.1482   53.7040 H       1  ZINC000482139334    0.1300
     42 H42        -2.8343    5.6869   52.5606 H       1  ZINC000482139334    0.1300
     43 H43        -3.5207    4.4035   50.5780 H       1  ZINC000482139334    0.1200
@<TRIPOS>BOND
     1     1     2    2
     2     2     3   am
     3     2    16    1
     4     3     4    1
     5     3    28    1
     6     4    15    1
     7     4     5    2
     8     5     6    1
     9     6     7    1
    10     6    14    2
    11     7    12   ar
    12     7     8   ar
    13     8     9   ar
    14     8    29    1
    15     9    10   ar
    16     9    30    1
    17    10    11   ar
    18    10    31    1
    19    11    12   ar
    20    11    32    1
    21    12    13    1
    22    14    15    1
    23    14    33    1
    24    16    17    1
    25    16    19    1
    26    16    18    1
    27    18    19    1
    28    18    34    1
    29    18    35    1
    30    19    27    1
    31    19    20    1
    32    20    21    1
    33    20    36    1
    34    20    37    1
    35    21    22    1
    36    21    38    1
    37    21    39    1
    38    22    27   ar
    39    22    23   ar
    40    23    24   ar
    41    23    40    1
    42    24    25   ar
    43    24    41    1
    44    25    26   ar
    45    25    42    1
    46    26    27   ar
    47    26    43    1
@<TRIPOS>SUBSTRUCTURE
     1 ZINC000482139334        1 TEMP              0 ****  ****    0 ROOT


##########                                Name:    ZINC000277311370
##########                DOCK_Rotatable_Bonds:                   5
##########                         Heavy_Atoms:                  17
##########                    Molecular_Weight:             361.036
##########                DOCK_Rotatable_Bonds:                   5
##########                       Formal_Charge:        -7.45058e-08
##########                     HBond_Acceptors:                   4
##########                        HBond_Donors:                   1
##########                         Heavy_Atoms:                  17
##########                          Grid_Score:          -28.830399
##########                     Grid_vdw_energy:          -28.110498
##########                      Grid_es_energy:           -0.719900
##########           Internal_energy_repulsive:            9.667099

@<TRIPOS>MOLECULE
ZINC000277311370
 28 28 1 0 0
SMALL
USER_CHARGES


@<TRIPOS>ATOM
      1 C1         -9.7363   -1.5275   61.3488 C.3     1  ZINC000277311370   -0.1500
      2 C2         -9.8477   -2.2378   59.9982 C.3     1  ZINC000277311370   -0.1000
      3 C3         -9.6547   -3.7426   60.1960 C.3     1  ZINC000277311370   -0.1600
      4 C4        -11.2298   -1.9756   59.3967 C.3     1  ZINC000277311370    0.2500
      5 H5        -11.3506   -0.9076   59.2156 H       1  ZINC000277311370    0.1400
      6 C6        -12.2680   -2.4350   60.3336 C.1     1  ZINC000277311370    0.1900
      7 N7        -13.0692   -2.7896   61.0567 N.1     1  ZINC000277311370   -0.4100
      8 N8        -11.3575   -2.7028   58.1313 N.am    1  ZINC000277311370   -0.7000
      9 C9        -12.4679   -2.5597   57.3808 C.2     1  ZINC000277311370    0.5700
     10 O10       -13.3624   -1.8260   57.7531 O.2     1  ZINC000277311370   -0.4900
     11 C11       -12.5978   -3.2962   56.1026 C.ar    1  ZINC000277311370    0.1100
     12 N12       -11.9092   -2.8971   55.0400 N.ar    1  ZINC000277311370   -0.4300
     13 C13       -11.9957   -3.5238   53.8862 C.ar    1  ZINC000277311370    0.1300
     14 Br14      -10.9883   -2.9043   52.4107 Br      1  ZINC000277311370    0.0200
     15 C15       -12.8156   -4.6328   53.7375 C.ar    1  ZINC000277311370   -0.1100
     16 C16       -13.5519   -5.0833   54.8210 C.ar    1  ZINC000277311370   -0.0400
     17 C17       -13.4375   -4.4062   56.0266 C.ar    1  ZINC000277311370   -0.0900
     18 Br18      -14.4171   -4.9729   57.5416 Br      1  ZINC000277311370    0.0300
     19 H19        -8.7516   -1.7143   61.7774 H       1  ZINC000277311370    0.0700
     20 H20        -9.8738   -0.4555   61.2078 H       1  ZINC000277311370    0.0700
     21 H21       -10.5040   -1.9067   62.0232 H       1  ZINC000277311370    0.0600
     22 H22        -9.0799   -1.8586   59.3238 H       1  ZINC000277311370    0.1000
     23 H23       -10.4224   -4.1219   60.8705 H       1  ZINC000277311370    0.0600
     24 H24        -9.7342   -4.2488   59.2339 H       1  ZINC000277311370    0.0600
     25 H25        -8.6700   -3.9295   60.6247 H       1  ZINC000277311370    0.0700
     26 H26       -10.6430   -3.2874   57.8336 H       1  ZINC000277311370    0.4200
     27 H27       -12.8795   -5.1400   52.7862 H       1  ZINC000277311370    0.1600
     28 H28       -14.1973   -5.9446   54.7304 H       1  ZINC000277311370    0.1700
@<TRIPOS>BOND
     1     1     2    1
     2     1    19    1
     3     1    20    1
     4     1    21    1
     5     2     3    1
     6     2     4    1
     7     2    22    1
     8     3    23    1
     9     3    24    1
    10     3    25    1
    11     4     5    1
    12     4     6    1
    13     4     8    1
    14     6     7    3
    15     8     9   am
    16     8    26    1
    17     9    10    2
    18     9    11    1
    19    11    17   ar
    20    11    12   ar
    21    12    13   ar
    22    13    14    1
    23    13    15   ar
    24    15    16   ar
    25    15    27    1
    26    16    17   ar
    27    16    28    1
    28    17    18    1
@<TRIPOS>SUBSTRUCTURE
     1 ZINC000277311370        1 TEMP              0 ****  ****    0 ROOT


##########                                Name:    ZINC000845755710
##########                DOCK_Rotatable_Bonds:                   3
##########                         Heavy_Atoms:                  24
##########                    Molecular_Weight:             349.814
##########                DOCK_Rotatable_Bonds:                   3
##########                       Formal_Charge:         -0.00999974
##########                     HBond_Acceptors:                   6
##########                        HBond_Donors:                   0
##########                         Heavy_Atoms:                  24
##########                          Grid_Score:          -28.803370
##########                     Grid_vdw_energy:          -26.624586
##########                      Grid_es_energy:           -2.178784
##########           Internal_energy_repulsive:           20.525806

@<TRIPOS>MOLECULE
ZINC000845755710
 44 47 1 0 0
SMALL
USER_CHARGES


@<TRIPOS>ATOM
      1 C1        -10.7203    0.7300   64.3075 C.3     1  ZINC000845755710   -0.1700
      2 C2        -12.0733    1.1272   63.7138 C.3     1  ZINC000845755710    0.2600
      3 C3        -12.1101    0.7618   62.2286 C.3     1  ZINC000845755710   -0.0900
      4 C4        -10.9596    1.4625   61.5025 C.3     1  ZINC000845755710   -0.1300
      5 C5        -11.0201    1.1220   60.0102 C.3     1  ZINC000845755710    0.1100
      6 N6        -11.0283   -0.3394   59.8585 N.am    1  ZINC000845755710   -0.6000
      7 C7        -10.1264   -0.9527   59.0667 C.2     1  ZINC000845755710    0.5900
      8 O8         -9.2951   -0.2955   58.4692 O.2     1  ZINC000845755710   -0.5200
      9 C9        -10.1473   -2.4164   58.9249 C.2     1  ZINC000845755710   -0.2200
     10 C10        -9.3222   -3.3122   59.5316 C.2     1  ZINC000845755710    0.0600
     11 O11        -9.6474   -4.5552   59.1578 O.3     1  ZINC000845755710   -0.1800
     12 C12       -10.6873   -4.5534   58.2981 C.ar    1  ZINC000845755710    0.0500
     13 C13       -11.3777   -5.5643   57.6413 C.ar    1  ZINC000845755710   -0.0900
     14 C14       -12.4249   -5.2505   56.8012 C.ar    1  ZINC000845755710   -0.0800
     15 C15       -12.8001   -3.9297   56.6019 C.ar    1  ZINC000845755710   -0.0400
     16 Cl16      -14.1213   -3.5559   55.5395 Cl      1  ZINC000845755710   -0.0600
     17 C17       -12.1262   -2.9125   57.2462 C.ar    1  ZINC000845755710   -0.0500
     18 C18       -11.0720   -3.2192   58.0998 C.ar    1  ZINC000845755710   -0.0900
     19 C19       -12.0379   -1.1195   60.5869 C.3     1  ZINC000845755710    0.1000
     20 C20       -11.9660   -0.7538   62.0728 C.3     1  ZINC000845755710   -0.1300
     21 O21       -13.1261    0.4342   64.4050 O.3     1  ZINC000845755710   -0.3700
     22 C22       -13.5813    1.3657   65.4157 C.3     1  ZINC000845755710    0.0100
     23 C23       -13.4508    2.7207   64.6764 C.3     1  ZINC000845755710    0.0200
     24 O24       -12.2711    2.5389   63.8677 O.3     1  ZINC000845755710   -0.3800
     25 H25       -10.6948    0.9964   65.3641 H       1  ZINC000845755710    0.0600
     26 H26       -10.5782   -0.3454   64.2004 H       1  ZINC000845755710    0.0800
     27 H27        -9.9240    1.2560   63.7808 H       1  ZINC000845755710    0.0800
     28 H28       -13.0592    1.0823   61.7992 H       1  ZINC000845755710    0.0900
     29 H29       -11.0498    2.5409   61.6335 H       1  ZINC000845755710    0.0800
     30 H30       -10.0091    1.1238   61.9147 H       1  ZINC000845755710    0.0800
     31 H31       -11.9289    1.5394   59.5767 H       1  ZINC000845755710    0.0700
     32 H32       -10.1479    1.5369   59.5050 H       1  ZINC000845755710    0.1000
     33 H33        -8.5238   -3.0580   60.2129 H       1  ZINC000845755710    0.2200
     34 H34       -11.0938   -6.5959   57.7884 H       1  ZINC000845755710    0.1500
     35 H35       -12.9582   -6.0404   56.2932 H       1  ZINC000845755710    0.1500
     36 H36       -12.4180   -1.8842   57.0912 H       1  ZINC000845755710    0.1400
     37 H37       -13.0298   -0.8850   60.2006 H       1  ZINC000845755710    0.0800
     38 H38       -11.8373   -2.1837   60.4624 H       1  ZINC000845755710    0.0900
     39 H39       -11.0060   -1.0718   62.4797 H       1  ZINC000845755710    0.0700
     40 H40       -12.7725   -1.2531   62.6098 H       1  ZINC000845755710    0.0800
     41 H41       -14.6178    1.1687   65.6894 H       1  ZINC000845755710    0.1100
     42 H42       -12.9352    1.3360   66.2931 H       1  ZINC000845755710    0.0800
     43 H43       -14.3235    2.9029   64.0492 H       1  ZINC000845755710    0.0800
     44 H44       -13.3091    3.5351   65.3869 H       1  ZINC000845755710    0.1000
@<TRIPOS>BOND
     1     1     2    1
     2     1    25    1
     3     1    26    1
     4     1    27    1
     5     2    24    1
     6     2     3    1
     7     2    21    1
     8     3    20    1
     9     3     4    1
    10     3    28    1
    11     4     5    1
    12     4    29    1
    13     4    30    1
    14     5     6    1
    15     5    31    1
    16     5    32    1
    17     6     7   am
    18     6    19    1
    19     7     8    2
    20     7     9    1
    21     9    18    1
    22     9    10    2
    23    10    11    1
    24    10    33    1
    25    11    12    1
    26    12    18   ar
    27    12    13   ar
    28    13    14   ar
    29    13    34    1
    30    14    15   ar
    31    14    35    1
    32    15    16    1
    33    15    17   ar
    34    17    18   ar
    35    17    36    1
    36    19    20    1
    37    19    37    1
    38    19    38    1
    39    20    39    1
    40    20    40    1
    41    21    22    1
    42    22    23    1
    43    22    41    1
    44    22    42    1
    45    23    24    1
    46    23    43    1
    47    23    44    1
@<TRIPOS>SUBSTRUCTURE
     1 ZINC000845755710        1 TEMP              0 ****  ****    0 ROOT


##########                                Name:    ZINC001318556452
##########                DOCK_Rotatable_Bonds:                   4
##########                         Heavy_Atoms:                  26
##########                    Molecular_Weight:             368.456
##########                DOCK_Rotatable_Bonds:                   4
##########                       Formal_Charge:          -0.0200005
##########                     HBond_Acceptors:                   6
##########                        HBond_Donors:                   1
##########                         Heavy_Atoms:                  26
##########                          Grid_Score:          -28.729609
##########                     Grid_vdw_energy:          -29.260902
##########                      Grid_es_energy:            0.531294
##########           Internal_energy_repulsive:           23.783699

@<TRIPOS>MOLECULE
ZINC001318556452
 46 48 1 0 0
SMALL
USER_CHARGES


@<TRIPOS>ATOM
      1 C1        -10.1618    1.0910   55.1830 C.3     1  ZINC001318556452   -0.1300
      2 C2        -10.5638   -0.2324   54.5846 C.ar    1  ZINC001318556452   -0.1000
      3 C3        -10.1744   -0.5571   53.3003 C.ar    1  ZINC001318556452   -0.0500
      4 C4         -9.3473    0.4131   52.4967 C.3     1  ZINC001318556452   -0.4100
      5 S5         -7.8415   -0.4139   51.9142 S.o     1  ZINC001318556452    1.2500
      6 C6         -6.9926    0.8917   50.9841 C.3     1  ZINC001318556452   -0.4900
      7 O7         -8.1928   -1.4716   51.0326 O.2     1  ZINC001318556452   -0.8400
      8 C8        -10.5422   -1.7718   52.7507 C.ar    1  ZINC001318556452   -0.1200
      9 C9        -11.3014   -2.6646   53.4845 C.ar    1  ZINC001318556452   -0.1000
     10 C10       -11.6951   -2.3457   54.7694 C.ar    1  ZINC001318556452   -0.1200
     11 C11       -11.3219   -1.1295   55.3267 C.ar    1  ZINC001318556452    0.1400
     12 N12       -11.7183   -0.8037   56.6271 N.am    1  ZINC001318556452   -0.6600
     13 C13       -10.8560   -0.9541   57.6520 C.2     1  ZINC001318556452    0.5600
     14 O14        -9.7342   -1.3728   57.4457 O.2     1  ZINC001318556452   -0.5000
     15 C15       -11.2764   -0.6087   59.0312 C.2     1  ZINC001318556452   -0.0300
     16 C16       -10.6964    0.4329   59.6975 C.2     1  ZINC001318556452   -0.1600
     17 C17       -11.1325    0.7491   61.0555 C.2     1  ZINC001318556452    0.5300
     18 O18       -10.6155    1.6780   61.6505 O.2     1  ZINC001318556452   -0.5200
     19 N19       -12.0959    0.0309   61.6582 N.am    1  ZINC001318556452   -0.5200
     20 C20       -12.5059    0.3806   63.0205 C.3     1  ZINC001318556452    0.0600
     21 C21       -12.7062   -1.0277   61.0200 C.ar    1  ZINC001318556452    0.1800
     22 C22       -13.7022   -1.7589   61.6619 C.ar    1  ZINC001318556452   -0.1700
     23 C23       -14.3039   -2.8147   61.0124 C.ar    1  ZINC001318556452   -0.0600
     24 C24       -13.9270   -3.1581   59.7215 C.ar    1  ZINC001318556452   -0.1500
     25 C25       -12.9521   -2.4545   59.0727 C.ar    1  ZINC001318556452   -0.0600
     26 C26       -12.3319   -1.3761   59.7100 C.ar    1  ZINC001318556452   -0.1100
     27 H27        -9.2037    0.9838   55.6915 H       1  ZINC001318556452    0.0800
     28 H28       -10.0717    1.8352   54.3916 H       1  ZINC001318556452    0.0800
     29 H29       -10.9191    1.4114   55.8985 H       1  ZINC001318556452    0.0700
     30 H30        -9.9252    0.7608   51.6403 H       1  ZINC001318556452    0.1000
     31 H31        -9.0759    1.2638   53.1216 H       1  ZINC001318556452    0.1300
     32 H32        -6.7802    1.7306   51.6469 H       1  ZINC001318556452    0.1100
     33 H33        -6.0581    0.5016   50.5808 H       1  ZINC001318556452    0.1100
     34 H34        -7.6294    1.2276   50.1657 H       1  ZINC001318556452    0.0800
     35 H35       -10.2360   -2.0235   51.7461 H       1  ZINC001318556452    0.1200
     36 H36       -11.5872   -3.6122   53.0523 H       1  ZINC001318556452    0.1300
     37 H37       -12.2884   -3.0433   55.3418 H       1  ZINC001318556452    0.1500
     38 H38       -12.6138   -0.4694   56.7918 H       1  ZINC001318556452    0.4100
     39 H39        -9.9213    1.0177   59.2245 H       1  ZINC001318556452    0.1600
     40 H40       -11.9243    1.2348   63.3670 H       1  ZINC001318556452    0.1000
     41 H41       -13.5655    0.6357   63.0268 H       1  ZINC001318556452    0.0800
     42 H42       -12.3327   -0.4689   63.6813 H       1  ZINC001318556452    0.0800
     43 H43       -14.0021   -1.4995   62.6665 H       1  ZINC001318556452    0.1400
     44 H44       -15.0759   -3.3805   61.5126 H       1  ZINC001318556452    0.1300
     45 H45       -14.4080   -3.9886   59.2261 H       1  ZINC001318556452    0.1300
     46 H46       -12.6644   -2.7280   58.0682 H       1  ZINC001318556452    0.1700
@<TRIPOS>BOND
     1     1     2    1
     2     1    27    1
     3     1    28    1
     4     1    29    1
     5     2    11   ar
     6     2     3   ar
     7     3     4    1
     8     3     8   ar
     9     4     5    1
    10     4    30    1
    11     4    31    1
    12     5     6    1
    13     5     7    2
    14     6    32    1
    15     6    33    1
    16     6    34    1
    17     8     9   ar
    18     8    35    1
    19     9    10   ar
    20     9    36    1
    21    10    11   ar
    22    10    37    1
    23    11    12    1
    24    12    13   am
    25    12    38    1
    26    13    14    2
    27    13    15    1
    28    15    26    1
    29    15    16    2
    30    16    17    1
    31    16    39    1
    32    17    18    2
    33    17    19   am
    34    19    20    1
    35    19    21    1
    36    20    40    1
    37    20    41    1
    38    20    42    1
    39    21    26   ar
    40    21    22   ar
    41    22    23   ar
    42    22    43    1
    43    23    24   ar
    44    23    44    1
    45    24    25   ar
    46    24    45    1
    47    25    26   ar
    48    25    46    1
@<TRIPOS>SUBSTRUCTURE
     1 ZINC001318556452        1 TEMP              0 ****  ****    0 ROOT


##########                                Name:    ZINC000828026236
##########                DOCK_Rotatable_Bonds:                   1
##########                         Heavy_Atoms:                  19
##########                    Molecular_Weight:             383.045
##########                DOCK_Rotatable_Bonds:                   1
##########                       Formal_Charge:                   0
##########                     HBond_Acceptors:                   5
##########                        HBond_Donors:                   0
##########                         Heavy_Atoms:                  19
##########                          Grid_Score:          -28.701029
##########                     Grid_vdw_energy:          -27.036617
##########                      Grid_es_energy:           -1.664411
##########           Internal_energy_repulsive:            4.488482

@<TRIPOS>MOLECULE
ZINC000828026236
 28 30 1 0 0
SMALL
USER_CHARGES


@<TRIPOS>ATOM
      1 N1        -11.4590    1.9128   59.7054 N.1     1  ZINC000828026236   -0.3800
      2 C2        -11.0346    1.4284   60.6411 C.1     1  ZINC000828026236    0.2600
      3 C3        -10.4996    0.8178   61.8208 C.ar    1  ZINC000828026236   -0.0500
      4 C4        -10.1581    1.5951   62.9331 C.ar    1  ZINC000828026236    0.0100
      5 C5         -9.6445    0.9563   64.0493 C.ar    1  ZINC000828026236   -0.1600
      6 Br6        -9.1656    1.9545   65.5824 Br      1  ZINC000828026236   -0.0100
      7 C7         -9.4849   -0.4181   64.0344 C.ar    1  ZINC000828026236    0.1800
      8 N8         -9.8133   -1.1328   62.9752 N.ar    1  ZINC000828026236   -0.5000
      9 C9        -10.3135   -0.5741   61.8848 C.ar    1  ZINC000828026236    0.3600
     10 N10       -10.6440   -1.3635   60.7966 N.3     1  ZINC000828026236   -0.4900
     11 C11       -12.0891   -1.6286   60.7576 C.3     1  ZINC000828026236    0.0500
     12 C12       -12.4773   -2.1724   59.3768 C.3     1  ZINC000828026236    0.1100
     13 N13       -11.5618   -3.2661   59.0409 N.pl3   1  ZINC000828026236   -0.4400
     14 C14       -11.6978   -4.2260   58.0865 C.2     1  ZINC000828026236   -0.0300
     15 Br15      -13.1441   -4.4276   56.8851 Br      1  ZINC000828026236    0.0200
     16 C16       -10.5987   -5.0066   58.1640 C.2     1  ZINC000828026236    0.0300
     17 N17        -9.8151   -4.5274   59.1451 N.2     1  ZINC000828026236   -0.4700
     18 C18       -10.3818   -3.4857   59.6745 C.2     1  ZINC000828026236    0.2300
     19 C19        -9.8724   -2.6184   60.8009 C.3     1  ZINC000828026236    0.1500
     20 H20       -10.2913    2.6669   62.9212 H       1  ZINC000828026236    0.1600
     21 H21        -9.0841   -0.9147   64.9055 H       1  ZINC000828026236    0.1800
     22 H22       -12.3439   -2.3631   61.5216 H       1  ZINC000828026236    0.0700
     23 H23       -12.6329   -0.7035   60.9491 H       1  ZINC000828026236    0.1100
     24 H24       -13.5013   -2.5451   59.4029 H       1  ZINC000828026236    0.1100
     25 H25       -12.3926   -1.3806   58.6326 H       1  ZINC000828026236    0.1000
     26 H26       -10.3865   -5.8663   57.5458 H       1  ZINC000828026236    0.1800
     27 H27        -8.8152   -2.4010   60.6489 H       1  ZINC000828026236    0.1200
     28 H28       -10.0102   -3.1321   61.7523 H       1  ZINC000828026236    0.1000
@<TRIPOS>BOND
     1     1     2    3
     2     2     3    1
     3     3     9   ar
     4     3     4   ar
     5     4     5   ar
     6     4    20    1
     7     5     6    1
     8     5     7   ar
     9     7     8   ar
    10     7    21    1
    11     8     9   ar
    12     9    10    1
    13    10    19    1
    14    10    11    1
    15    11    12    1
    16    11    22    1
    17    11    23    1
    18    12    13    1
    19    12    24    1
    20    12    25    1
    21    13    18    1
    22    13    14    1
    23    14    15    1
    24    14    16    2
    25    16    17    1
    26    16    26    1
    27    17    18    2
    28    18    19    1
    29    19    27    1
    30    19    28    1
@<TRIPOS>SUBSTRUCTURE
     1 ZINC000828026236        1 TEMP              0 ****  ****    0 ROOT


##########                                Name:    ZINC001135312623
##########                DOCK_Rotatable_Bonds:                   3
##########                         Heavy_Atoms:                  25
##########                    Molecular_Weight:             341.323
##########                DOCK_Rotatable_Bonds:                   3
##########                       Formal_Charge:        -1.78814e-07
##########                     HBond_Acceptors:                   8
##########                        HBond_Donors:                   2
##########                         Heavy_Atoms:                  25
##########                          Grid_Score:          -28.699629
##########                     Grid_vdw_energy:          -27.934721
##########                      Grid_es_energy:           -0.764909
##########           Internal_energy_repulsive:            5.242874

@<TRIPOS>MOLECULE
ZINC001135312623
 40 42 1 0 0
SMALL
USER_CHARGES


@<TRIPOS>ATOM
      1 C1         -9.2013   -3.2365   60.1071 C.3     1  ZINC001135312623   -0.1300
      2 C2         -9.8937   -2.1899   60.9415 C.ar    1  ZINC001135312623   -0.0600
      3 C3         -9.3098   -1.7390   62.1087 C.ar    1  ZINC001135312623   -0.1000
      4 C4         -9.9448   -0.7789   62.8754 C.ar    1  ZINC001135312623   -0.0300
      5 C5         -9.3047   -0.2891   64.1487 C.3     1  ZINC001135312623   -0.1300
      6 C6        -11.1655   -0.2669   62.4758 C.ar    1  ZINC001135312623   -0.0200
      7 N7        -11.8415    0.7605   63.2993 N.pl3   1  ZINC001135312623    0.0200
      8 O8        -13.0562    0.7665   63.3892 O.2     1  ZINC001135312623   -0.1500
      9 O9        -11.1833    1.6000   63.8870 O.2     1  ZINC001135312623   -0.1500
     10 C10       -11.7545   -0.7130   61.3087 C.ar    1  ZINC001135312623   -0.0700
     11 C11       -11.1173   -1.6735   60.5342 C.ar    1  ZINC001135312623    0.1500
     12 N12       -11.7109   -2.1273   59.3520 N.am    1  ZINC001135312623   -0.6600
     13 C13       -12.9415   -2.6760   59.3834 C.2     1  ZINC001135312623    0.5600
     14 O14       -13.5357   -2.7764   60.4396 O.2     1  ZINC001135312623   -0.5000
     15 C15       -13.5679   -3.1548   58.1361 C.ar    1  ZINC001135312623   -0.1600
     16 C16       -12.8697   -4.0204   57.2899 C.ar    1  ZINC001135312623   -0.0400
     17 C17       -13.4548   -4.4666   56.1251 C.ar    1  ZINC001135312623   -0.1500
     18 C18       -14.7393   -4.0555   55.7933 C.ar    1  ZINC001135312623    0.2000
     19 N19       -15.3491   -4.4926   54.6172 N.am    1  ZINC001135312623   -0.6700
     20 C20       -16.4421   -3.8533   54.1546 C.2     1  ZINC001135312623    0.6600
     21 O21       -16.9866   -4.2504   53.1435 O.2     1  ZINC001135312623   -0.4900
     22 O22       -16.9375   -2.7813   54.7987 O.3     1  ZINC001135312623   -0.3400
     23 C23       -16.8324   -2.7670   56.2489 C.3     1  ZINC001135312623    0.1100
     24 C24       -15.4384   -3.1932   56.6366 C.ar    1  ZINC001135312623   -0.1800
     25 C25       -14.8637   -2.7475   57.8016 C.ar    1  ZINC001135312623    0.0000
     26 H26        -8.5484   -2.7500   59.3824 H       1  ZINC001135312623    0.0900
     27 H27        -8.6083   -3.8831   60.7539 H       1  ZINC001135312623    0.0800
     28 H28        -9.9465   -3.8335   59.5813 H       1  ZINC001135312623    0.0700
     29 H29        -8.3565   -2.1368   62.4236 H       1  ZINC001135312623    0.1500
     30 H30        -8.6039    0.5132   63.9179 H       1  ZINC001135312623    0.0900
     31 H31       -10.0757    0.0844   64.8226 H       1  ZINC001135312623    0.0800
     32 H32        -8.7715   -1.1109   64.6266 H       1  ZINC001135312623    0.0800
     33 H33       -12.7080   -0.3127   60.9972 H       1  ZINC001135312623    0.1700
     34 H34       -11.2370   -2.0472   58.5095 H       1  ZINC001135312623    0.4200
     35 H35       -11.8709   -4.3396   57.5489 H       1  ZINC001135312623    0.1400
     36 H36       -12.9152   -5.1350   55.4707 H       1  ZINC001135312623    0.1500
     37 H37       -14.9882   -5.2527   54.1345 H       1  ZINC001135312623    0.4300
     38 H38       -17.0232   -1.7597   56.6194 H       1  ZINC001135312623    0.1300
     39 H39       -17.5585   -3.4594   56.6750 H       1  ZINC001135312623    0.1000
     40 H40       -15.4086   -2.0821   58.4550 H       1  ZINC001135312623    0.1500
@<TRIPOS>BOND
     1     1     2    1
     2     1    26    1
     3     1    27    1
     4     1    28    1
     5     2    11   ar
     6     2     3   ar
     7     3     4   ar
     8     3    29    1
     9     4     5    1
    10     4     6   ar
    11     5    30    1
    12     5    31    1
    13     5    32    1
    14     6     7    1
    15     6    10   ar
    16     7     8    2
    17     7     9    2
    18    10    11   ar
    19    10    33    1
    20    11    12    1
    21    12    13   am
    22    12    34    1
    23    13    14    2
    24    13    15    1
    25    15    25   ar
    26    15    16   ar
    27    16    17   ar
    28    16    35    1
    29    17    18   ar
    30    17    36    1
    31    18    24   ar
    32    18    19    1
    33    19    20   am
    34    19    37    1
    35    20    21    2
    36    20    22    1
    37    22    23    1
    38    23    24    1
    39    23    38    1
    40    23    39    1
    41    24    25   ar
    42    25    40    1
@<TRIPOS>SUBSTRUCTURE
     1 ZINC001135312623        1 TEMP              0 ****  ****    0 ROOT


##########                                Name:    ZINC000464752079
##########                DOCK_Rotatable_Bonds:                   7
##########                         Heavy_Atoms:                  29
##########                    Molecular_Weight:             404.413
##########                DOCK_Rotatable_Bonds:                   7
##########                       Formal_Charge:         7.45058e-08
##########                     HBond_Acceptors:                   8
##########                        HBond_Donors:                   1
##########                         Heavy_Atoms:                  29
##########                          Grid_Score:          -28.647692
##########                     Grid_vdw_energy:          -28.702709
##########                      Grid_es_energy:            0.055017
##########           Internal_energy_repulsive:           17.244888

@<TRIPOS>MOLECULE
ZINC000464752079
 51 54 1 0 0
SMALL
USER_CHARGES


@<TRIPOS>ATOM
      1 C1        -16.0923   -2.2223   51.4969 C.3     1  ZINC000464752079   -0.1200
      2 C2        -15.6175   -1.3055   52.5948 C.ar    1  ZINC000464752079   -0.0800
      3 C3        -16.4356   -0.2875   53.0471 C.ar    1  ZINC000464752079   -0.1200
      4 C4        -16.0000    0.5535   54.0543 C.ar    1  ZINC000464752079   -0.1200
      5 C5        -14.7466    0.3760   54.6091 C.ar    1  ZINC000464752079   -0.1300
      6 C6        -13.9286   -0.6429   54.1573 C.ar    1  ZINC000464752079   -0.0900
      7 C7        -14.3658   -1.4864   53.1534 C.ar    1  ZINC000464752079   -0.0800
      8 C8        -13.4742   -2.5970   52.6609 C.3     1  ZINC000464752079    0.2000
      9 H9        -14.0809   -3.4092   52.2604 H       1  ZINC000464752079    0.0900
     10 C10       -12.5252   -2.0625   51.5676 C.3     1  ZINC000464752079   -0.1200
     11 C11       -11.1949   -2.8017   51.8703 C.3     1  ZINC000464752079   -0.1300
     12 C12       -11.2204   -2.8664   53.4179 C.3     1  ZINC000464752079    0.1000
     13 N13       -12.6387   -3.0939   53.7639 N.am    1  ZINC000464752079   -0.6300
     14 C14       -13.0887   -3.6591   54.9016 C.2     1  ZINC000464752079    0.7200
     15 O15       -14.2834   -3.7978   55.0803 O.2     1  ZINC000464752079   -0.5700
     16 N16       -12.2146   -4.0704   55.8414 N.am    1  ZINC000464752079   -0.7400
     17 C17       -12.7038   -4.6864   57.0772 C.3     1  ZINC000464752079    0.1900
     18 C18       -12.3038   -3.8355   58.2550 C.ar    1  ZINC000464752079   -0.1200
     19 C19       -10.9745   -3.5134   58.4540 C.ar    1  ZINC000464752079   -0.0500
     20 C20       -10.6035   -2.7319   59.5359 C.ar    1  ZINC000464752079    0.0100
     21 C21       -11.5718   -2.2701   60.4238 C.ar    1  ZINC000464752079    0.0800
     22 C22       -12.9036   -2.5932   60.2217 C.ar    1  ZINC000464752079   -0.1800
     23 C23       -13.2707   -3.3719   59.1348 C.ar    1  ZINC000464752079    0.1400
     24 O24       -14.5780   -3.6888   58.9363 O.3     1  ZINC000464752079   -0.3100
     25 C25       -15.4985   -2.6020   58.8205 C.3     1  ZINC000464752079    0.4100
     26 F26       -15.1914   -1.8501   57.6814 F       1  ZINC000464752079   -0.2000
     27 F27       -16.8002   -3.1029   58.7117 F       1  ZINC000464752079   -0.2000
     28 O28       -10.9580   -1.5303   61.3929 O.3     1  ZINC000464752079   -0.3000
     29 C29        -9.5638   -1.8828   61.3211 C.3     1  ZINC000464752079    0.2100
     30 O30        -9.3821   -2.2809   59.9494 O.3     1  ZINC000464752079   -0.3000
     31 H31       -16.6115   -3.0749   51.9347 H       1  ZINC000464752079    0.0700
     32 H32       -16.7730   -1.6806   50.8402 H       1  ZINC000464752079    0.0700
     33 H33       -15.2359   -2.5745   50.9219 H       1  ZINC000464752079    0.0700
     34 H34       -17.4150   -0.1488   52.6136 H       1  ZINC000464752079    0.1200
     35 H35       -16.6390    1.3495   54.4072 H       1  ZINC000464752079    0.1200
     36 H36       -14.4060    1.0334   55.3954 H       1  ZINC000464752079    0.1200
     37 H37       -12.9491   -0.7814   54.5906 H       1  ZINC000464752079    0.1100
     38 H38       -12.8940   -2.3231   50.5755 H       1  ZINC000464752079    0.0900
     39 H39       -12.3972   -0.9842   51.6616 H       1  ZINC000464752079    0.0800
     40 H40       -11.1966   -3.8020   51.4374 H       1  ZINC000464752079    0.0800
     41 H41       -10.3391   -2.2262   51.5174 H       1  ZINC000464752079    0.0900
     42 H42       -10.6072   -3.6945   53.7730 H       1  ZINC000464752079    0.0700
     43 H43       -10.8713   -1.9252   53.8427 H       1  ZINC000464752079    0.0700
     44 H44       -11.2615   -3.9587   55.6992 H       1  ZINC000464752079    0.4000
     45 H45       -13.7902   -4.7654   57.0385 H       1  ZINC000464752079    0.0800
     46 H46       -12.2706   -5.6809   57.1838 H       1  ZINC000464752079    0.0800
     47 H47       -10.2239   -3.8719   57.7652 H       1  ZINC000464752079    0.1500
     48 H48       -13.6563   -2.2360   60.9090 H       1  ZINC000464752079    0.1500
     49 H49       -15.4258   -1.9684   59.7045 H       1  ZINC000464752079    0.1900
     50 H50        -8.9384   -1.0216   61.5561 H       1  ZINC000464752079    0.1400
     51 H51        -9.3434   -2.7123   61.9931 H       1  ZINC000464752079    0.0900
@<TRIPOS>BOND
     1     1     2    1
     2     1    31    1
     3     1    32    1
     4     1    33    1
     5     2     7   ar
     6     2     3   ar
     7     3     4   ar
     8     3    34    1
     9     4     5   ar
    10     4    35    1
    11     5     6   ar
    12     5    36    1
    13     6     7   ar
    14     6    37    1
    15     7     8    1
    16     8     9    1
    17     8    13    1
    18     8    10    1
    19    10    11    1
    20    10    38    1
    21    10    39    1
    22    11    12    1
    23    11    40    1
    24    11    41    1
    25    12    13    1
    26    12    42    1
    27    12    43    1
    28    13    14   am
    29    14    15    2
    30    14    16   am
    31    16    17    1
    32    16    44    1
    33    17    18    1
    34    17    45    1
    35    17    46    1
    36    18    23   ar
    37    18    19   ar
    38    19    20   ar
    39    19    47    1
    40    20    30    1
    41    20    21   ar
    42    21    22   ar
    43    21    28    1
    44    22    23   ar
    45    22    48    1
    46    23    24    1
    47    24    25    1
    48    25    26    1
    49    25    27    1
    50    25    49    1
    51    28    29    1
    52    29    30    1
    53    29    50    1
    54    29    51    1
@<TRIPOS>SUBSTRUCTURE
     1 ZINC000464752079        1 TEMP              0 ****  ****    0 ROOT


##########                                Name:    ZINC001231746020
##########                DOCK_Rotatable_Bonds:                   3
##########                         Heavy_Atoms:                  19
##########                    Molecular_Weight:             348.667
##########                DOCK_Rotatable_Bonds:                   3
##########                       Formal_Charge:          -0.0399997
##########                     HBond_Acceptors:                   4
##########                        HBond_Donors:                   2
##########                         Heavy_Atoms:                  19
##########                          Grid_Score:          -28.640785
##########                     Grid_vdw_energy:          -24.703720
##########                      Grid_es_energy:           -3.937065
##########           Internal_energy_repulsive:           11.470426

@<TRIPOS>MOLECULE
ZINC001231746020
 38 39 1 0 0
SMALL
USER_CHARGES


@<TRIPOS>ATOM
      1 C1        -10.8316    2.8707   64.3747 C.3     1  ZINC001231746020   -0.1500
      2 C2        -10.7471    1.6993   63.3940 C.3     1  ZINC001231746020   -0.0900
      3 H3        -10.0028    1.9173   62.6280 H       1  ZINC001231746020    0.0800
      4 C4        -10.3569    0.4483   64.1349 C.3     1  ZINC001231746020   -0.1400
      5 C5         -9.5282   -0.5339   63.2876 C.3     1  ZINC001231746020   -0.0100
      6 N6        -10.0307   -0.6924   61.9060 N.4     1  ZINC001231746020   -0.3800
      7 H7         -9.7301    0.0973   61.3546 H       1  ZINC001231746020    0.4100
      8 C8         -9.4659   -1.9200   61.3298 C.3     1  ZINC001231746020    0.0700
      9 C9         -9.9394   -2.0712   59.9072 C.ar    1  ZINC001231746020   -0.3100
     10 C10       -10.6170   -3.2135   59.5233 C.ar    1  ZINC001231746020   -0.0300
     11 C11       -11.0530   -3.3547   58.2188 C.ar    1  ZINC001231746020   -0.1600
     12 Cl12      -11.9036   -4.7894   57.7375 Cl      1  ZINC001231746020   -0.0800
     13 C13       -10.8094   -2.3486   57.2945 C.ar    1  ZINC001231746020    0.3100
     14 O14       -11.2373   -2.4845   56.0113 O.3     1  ZINC001231746020   -0.6300
     15 C15       -10.1286   -1.2032   57.6826 C.ar    1  ZINC001231746020   -0.2100
     16 Br16       -9.7943    0.1705   56.4267 Br      1  ZINC001231746020   -0.0600
     17 C17        -9.7004   -1.0648   58.9896 C.ar    1  ZINC001231746020   -0.0200
     18 C18       -11.4706   -0.7726   61.8624 C.3     1  ZINC001231746020   -0.0200
     19 C19       -12.0121    0.6316   61.5488 C.3     1  ZINC001231746020   -0.1800
     20 C20       -12.1293    1.4772   62.7304 C.3     1  ZINC001231746020    0.1000
     21 H21       -12.5461    2.4417   62.4403 H       1  ZINC001231746020    0.0700
     22 O22       -13.0058    0.8518   63.6699 O.3     1  ZINC001231746020   -0.5600
     23 H23        -9.8613    3.0181   64.8490 H       1  ZINC001231746020    0.0600
     24 H24       -11.5795    2.6529   65.1372 H       1  ZINC001231746020    0.0700
     25 H25       -11.1142    3.7755   63.8365 H       1  ZINC001231746020    0.0600
     26 H26        -9.7747    0.7296   65.0123 H       1  ZINC001231746020    0.1000
     27 H27       -11.2634   -0.0582   64.4661 H       1  ZINC001231746020    0.1000
     28 H28        -8.4993   -0.1763   63.2456 H       1  ZINC001231746020    0.1200
     29 H29        -9.5362   -1.5084   63.7757 H       1  ZINC001231746020    0.1200
     30 H30        -8.3775   -1.8618   61.3463 H       1  ZINC001231746020    0.1200
     31 H31        -9.7926   -2.7797   61.9148 H       1  ZINC001231746020    0.1200
     32 H32       -10.8061   -3.9961   60.2432 H       1  ZINC001231746020    0.1100
     33 H33        -9.1751   -0.1714   59.2934 H       1  ZINC001231746020    0.1100
     34 H34       -11.7778   -1.4692   61.0823 H       1  ZINC001231746020    0.1400
     35 H35       -11.8508   -1.1084   62.8272 H       1  ZINC001231746020    0.1300
     36 H36       -11.3423    1.1146   60.8373 H       1  ZINC001231746020    0.0900
     37 H37       -12.9965    0.5335   61.0912 H       1  ZINC001231746020    0.1100
     38 H38       -12.6958   -0.0083   63.9847 H       1  ZINC001231746020    0.3900
@<TRIPOS>BOND
     1     1     2    1
     2     1    23    1
     3     1    24    1
     4     1    25    1
     5     2     3    1
     6     2    20    1
     7     2     4    1
     8     4     5    1
     9     4    26    1
    10     4    27    1
    11     5     6    1
    12     5    28    1
    13     5    29    1
    14     6     7    1
    15     6     8    1
    16     6    18    1
    17     8     9    1
    18     8    30    1
    19     8    31    1
    20     9    17   ar
    21     9    10   ar
    22    10    11   ar
    23    10    32    1
    24    11    12    1
    25    11    13   ar
    26    13    14    1
    27    13    15   ar
    28    15    16    1
    29    15    17   ar
    30    17    33    1
    31    18    19    1
    32    18    34    1
    33    18    35    1
    34    19    20    1
    35    19    36    1
    36    19    37    1
    37    20    21    1
    38    20    22    1
    39    22    38    1
@<TRIPOS>SUBSTRUCTURE
     1 ZINC001231746020        1 TEMP              0 ****  ****    0 ROOT


##########                                Name:    ZINC000302023461
##########                DOCK_Rotatable_Bonds:                   3
##########                         Heavy_Atoms:                  25
##########                    Molecular_Weight:             356.362
##########                DOCK_Rotatable_Bonds:                   3
##########                       Formal_Charge:        -2.08616e-07
##########                     HBond_Acceptors:                   9
##########                        HBond_Donors:                   1
##########                         Heavy_Atoms:                  25
##########                          Grid_Score:          -28.615051
##########                     Grid_vdw_energy:          -28.344585
##########                      Grid_es_energy:           -0.270467
##########           Internal_energy_repulsive:           20.218300

@<TRIPOS>MOLECULE
ZINC000302023461
 37 40 1 0 0
SMALL
USER_CHARGES


@<TRIPOS>ATOM
      1 O1        -14.3764    1.7843   64.1831 O.2     1  ZINC000302023461   -0.1600
      2 N2        -13.2741    1.5197   63.7375 N.pl3   1  ZINC000302023461    0.0200
      3 O3        -12.4488    0.9672   64.4426 O.2     1  ZINC000302023461   -0.1300
      4 C4        -12.9397    1.8643   62.3372 C.ar    1  ZINC000302023461    0.0000
      5 C5        -13.8745    2.4905   61.5373 C.ar    1  ZINC000302023461   -0.0600
      6 C6        -13.5629    2.8128   60.2287 C.ar    1  ZINC000302023461   -0.0900
      7 C7        -12.3145    2.5096   59.7170 C.ar    1  ZINC000302023461   -0.0800
      8 C8        -11.3743    1.8832   60.5113 C.ar    1  ZINC000302023461   -0.0500
      9 C9        -11.6821    1.5627   61.8278 C.ar    1  ZINC000302023461   -0.1100
     10 S10       -10.4856    0.7640   62.8452 S.3     1  ZINC000302023461    0.1900
     11 C11       -10.1715   -0.7395   61.9820 C.2     1  ZINC000302023461    0.2100
     12 N12        -9.1331   -1.5218   62.1665 N.2     1  ZINC000302023461   -0.3200
     13 N13        -9.2722   -2.6030   61.2812 N.pl3   1  ZINC000302023461   -0.4700
     14 C14       -10.4218   -2.3933   60.6007 C.2     1  ZINC000302023461    0.3500
     15 C15       -10.9863   -3.2731   59.5547 C.ar    1  ZINC000302023461   -0.0400
     16 C16       -10.2240   -4.3190   59.0339 C.ar    1  ZINC000302023461   -0.0900
     17 C17       -10.7522   -5.1367   58.0573 C.ar    1  ZINC000302023461   -0.1100
     18 C18       -12.0417   -4.9238   57.5885 C.ar    1  ZINC000302023461    0.0800
     19 O19       -12.5395   -5.7378   56.6183 O.3     1  ZINC000302023461   -0.3000
     20 C20       -13.9596   -5.7304   56.4372 C.3     1  ZINC000302023461    0.0200
     21 C21       -14.4340   -4.2712   56.4148 C.3     1  ZINC000302023461    0.0200
     22 O22       -14.0762   -3.6645   57.6613 O.3     1  ZINC000302023461   -0.3000
     23 C23       -12.8085   -3.8839   58.1065 C.ar    1  ZINC000302023461    0.0500
     24 C24       -12.2852   -3.0629   59.0898 C.ar    1  ZINC000302023461   -0.0500
     25 N25       -10.9536   -1.2695   61.0392 N.2     1  ZINC000302023461   -0.5000
     26 H26       -14.8505    2.7288   61.9337 H       1  ZINC000302023461    0.1600
     27 H27       -14.2963    3.3021   59.6050 H       1  ZINC000302023461    0.1500
     28 H28       -12.0745    2.7627   58.6949 H       1  ZINC000302023461    0.1500
     29 H29       -10.3998    1.6460   60.1109 H       1  ZINC000302023461    0.1600
     30 H30        -8.6641   -3.3516   61.1782 H       1  ZINC000302023461    0.4400
     31 H31        -9.2202   -4.4879   59.3952 H       1  ZINC000302023461    0.1300
     32 H32       -10.1604   -5.9458   57.6552 H       1  ZINC000302023461    0.1500
     33 H33       -14.2123   -6.2136   55.4935 H       1  ZINC000302023461    0.1300
     34 H34       -14.4379   -6.2598   57.2614 H       1  ZINC000302023461    0.0800
     35 H35       -13.9503   -3.7399   55.5951 H       1  ZINC000302023461    0.0800
     36 H36       -15.5161   -4.2383   56.2872 H       1  ZINC000302023461    0.1300
     37 H37       -12.8801   -2.2574   59.4942 H       1  ZINC000302023461    0.1600
@<TRIPOS>BOND
     1     1     2    2
     2     2     3    2
     3     2     4    1
     4     4     9   ar
     5     4     5   ar
     6     5     6   ar
     7     5    26    1
     8     6     7   ar
     9     6    27    1
    10     7     8   ar
    11     7    28    1
    12     8     9   ar
    13     8    29    1
    14     9    10    1
    15    10    11    1
    16    11    25    1
    17    11    12    2
    18    12    13    1
    19    13    14    1
    20    13    30    1
    21    14    15    1
    22    14    25    2
    23    15    24   ar
    24    15    16   ar
    25    16    17   ar
    26    16    31    1
    27    17    18   ar
    28    17    32    1
    29    18    23   ar
    30    18    19    1
    31    19    20    1
    32    20    21    1
    33    20    33    1
    34    20    34    1
    35    21    22    1
    36    21    35    1
    37    21    36    1
    38    22    23    1
    39    23    24   ar
    40    24    37    1
@<TRIPOS>SUBSTRUCTURE
     1 ZINC000302023461        1 TEMP              0 ****  ****    0 ROOT


##########                                Name:    ZINC001076281847
##########                DOCK_Rotatable_Bonds:                   4
##########                         Heavy_Atoms:                  24
##########                    Molecular_Weight:             362.883
##########                DOCK_Rotatable_Bonds:                   4
##########                       Formal_Charge:         -0.00999959
##########                     HBond_Acceptors:                   7
##########                        HBond_Donors:                   0
##########                         Heavy_Atoms:                  24
##########                          Grid_Score:          -28.590912
##########                     Grid_vdw_energy:          -29.016155
##########                      Grid_es_energy:            0.425244
##########           Internal_energy_repulsive:            8.592724

@<TRIPOS>MOLECULE
ZINC001076281847
 43 46 1 0 0
SMALL
USER_CHARGES


@<TRIPOS>ATOM
      1 C1        -10.8329   -2.0218   51.9964 C.3     1  ZINC001076281847   -0.0900
      2 C2        -11.4492   -2.7697   53.1506 C.2     1  ZINC001076281847    0.1400
      3 N3        -12.1314   -3.8619   52.9674 N.2     1  ZINC001076281847   -0.4600
      4 S4        -12.6489   -4.3903   54.4937 S.3     1  ZINC001076281847    0.2500
      5 C5        -11.9227   -3.1036   55.3753 C.2     1  ZINC001076281847   -0.2100
      6 C6        -11.9561   -2.8867   56.8663 C.3     1  ZINC001076281847    0.1200
      7 N7        -10.5837   -2.7488   57.3718 N.3     1  ZINC001076281847   -0.5000
      8 C8        -10.3534   -3.6379   58.5212 C.3     1  ZINC001076281847    0.0300
      9 C9         -9.4880   -2.8527   59.5249 C.3     1  ZINC001076281847   -0.1000
     10 H10        -8.4230   -3.0689   59.4407 H       1  ZINC001076281847    0.1200
     11 C11       -10.0562   -3.0933   60.9483 C.3     1  ZINC001076281847   -0.1300
     12 C12       -11.3429   -2.2319   60.9246 C.3     1  ZINC001076281847    0.1000
     13 N13       -10.9809   -1.0352   60.1439 N.am    1  ZINC001076281847   -0.6000
     14 C14       -11.5762    0.1704   60.2350 C.2     1  ZINC001076281847    0.5700
     15 O15       -11.1941    1.0908   59.5395 O.2     1  ZINC001076281847   -0.4900
     16 C16       -12.6960    0.3736   61.1823 C.ar    1  ZINC001076281847   -0.0800
     17 C17       -13.8940   -0.3334   61.0412 C.ar    1  ZINC001076281847   -0.1800
     18 C18       -14.9126   -0.1133   61.9480 C.ar    1  ZINC001076281847    0.1000
     19 N19       -14.7670    0.7482   62.9348 N.ar    1  ZINC001076281847   -0.4500
     20 C20       -13.6557    1.4357   63.1053 C.ar    1  ZINC001076281847    0.1100
     21 C21       -12.5827    1.2744   62.2476 C.ar    1  ZINC001076281847   -0.0500
     22 Cl22      -11.1228    2.1844   62.4811 Cl      1  ZINC001076281847   -0.0100
     23 C23        -9.8481   -1.3705   59.2353 C.3     1  ZINC001076281847    0.1000
     24 H24        -9.0002   -0.7047   59.3973 H       1  ZINC001076281847    0.1100
     25 C25       -10.3058   -1.3608   57.7703 C.3     1  ZINC001076281847    0.0200
     26 C26       -11.3116   -2.3315   54.4498 C.2     1  ZINC001076281847   -0.1800
     27 H27        -9.7987   -2.3408   51.8677 H       1  ZINC001076281847    0.0700
     28 H28       -11.3942   -2.2321   51.0860 H       1  ZINC001076281847    0.0800
     29 H29       -10.8602   -0.9515   52.2010 H       1  ZINC001076281847    0.0900
     30 H30       -12.5182   -1.9797   57.0889 H       1  ZINC001076281847    0.1000
     31 H31       -12.4364   -3.7390   57.3468 H       1  ZINC001076281847    0.1000
     32 H32       -11.3046   -3.9076   58.9803 H       1  ZINC001076281847    0.0600
     33 H33        -9.8272   -4.5361   58.1981 H       1  ZINC001076281847    0.0900
     34 H34       -10.2942   -4.1460   61.1005 H       1  ZINC001076281847    0.0900
     35 H35        -9.3627   -2.7377   61.7104 H       1  ZINC001076281847    0.0800
     36 H36       -12.1528   -2.7733   60.4357 H       1  ZINC001076281847    0.0800
     37 H37       -11.6302   -1.9513   61.9379 H       1  ZINC001076281847    0.0800
     38 H38       -14.0213   -1.0408   60.2351 H       1  ZINC001076281847    0.1800
     39 H39       -15.8417   -0.6547   61.8465 H       1  ZINC001076281847    0.1700
     40 H40       -13.5803    2.1312   63.9281 H       1  ZINC001076281847    0.1700
     41 H41        -9.5253   -0.9301   57.1431 H       1  ZINC001076281847    0.1000
     42 H42       -11.2206   -0.7760   57.6738 H       1  ZINC001076281847    0.0700
     43 H43       -10.7638   -1.4371   54.7077 H       1  ZINC001076281847    0.1400
@<TRIPOS>BOND
     1     1     2    1
     2     1    27    1
     3     1    28    1
     4     1    29    1
     5     2    26    1
     6     2     3    2
     7     3     4    1
     8     4     5    1
     9     5     6    1
    10     5    26    2
    11     6     7    1
    12     6    30    1
    13     6    31    1
    14     7    25    1
    15     7     8    1
    16     8     9    1
    17     8    32    1
    18     8    33    1
    19     9    10    1
    20     9    23    1
    21     9    11    1
    22    11    12    1
    23    11    34    1
    24    11    35    1
    25    12    13    1
    26    12    36    1
    27    12    37    1
    28    13    14   am
    29    13    23    1
    30    14    15    2
    31    14    16    1
    32    16    21   ar
    33    16    17   ar
    34    17    18   ar
    35    17    38    1
    36    18    19   ar
    37    18    39    1
    38    19    20   ar
    39    20    21   ar
    40    20    40    1
    41    21    22    1
    42    23    24    1
    43    23    25    1
    44    25    41    1
    45    25    42    1
    46    26    43    1
@<TRIPOS>SUBSTRUCTURE
     1 ZINC001076281847        1 TEMP              0 ****  ****    0 ROOT


##########                                Name:    ZINC000587344575
##########                DOCK_Rotatable_Bonds:                   7
##########                         Heavy_Atoms:                  30
##########                    Molecular_Weight:             408.475
##########                DOCK_Rotatable_Bonds:                   7
##########                       Formal_Charge:          -0.0100002
##########                     HBond_Acceptors:                   7
##########                        HBond_Donors:                   2
##########                         Heavy_Atoms:                  30
##########                          Grid_Score:          -28.579082
##########                     Grid_vdw_energy:          -28.426386
##########                      Grid_es_energy:           -0.152697
##########           Internal_energy_repulsive:           11.117758

@<TRIPOS>MOLECULE
ZINC000587344575
 55 57 1 0 0
SMALL
USER_CHARGES


@<TRIPOS>ATOM
      1 C1        -11.8470   -1.8449   51.5410 C.3     1  ZINC000587344575   -0.1200
      2 C2        -12.8565   -2.1888   52.6058 C.ar    1  ZINC000587344575    0.0000
      3 C3        -12.4362   -2.4990   53.8793 C.ar    1  ZINC000587344575   -0.1600
      4 C4        -13.3676   -2.8161   54.8632 C.ar    1  ZINC000587344575    0.1800
      5 N5        -12.9384   -3.1295   56.1524 N.am    1  ZINC000587344575   -0.6700
      6 C6        -12.9737   -2.1927   57.1207 C.2     1  ZINC000587344575    0.5200
      7 O7        -13.3788   -1.0772   56.8708 O.2     1  ZINC000587344575   -0.5000
      8 C8        -12.5098   -2.5313   58.5140 C.3     1  ZINC000587344575   -0.1200
      9 H9        -11.9673   -3.4767   58.5122 H       1  ZINC000587344575    0.1100
     10 C10       -13.7164   -2.6070   59.4776 C.3     1  ZINC000587344575   -0.1200
     11 C11       -13.1677   -1.9552   60.7718 C.3     1  ZINC000587344575    0.0400
     12 N12       -12.3075   -0.8573   60.2610 N.3     1  ZINC000587344575   -0.4800
     13 C13       -11.3876   -0.4534   61.2264 C.ar    1  ZINC000587344575    0.0700
     14 C14       -10.5005   -1.3768   61.7688 C.ar    1  ZINC000587344575   -0.1200
     15 C15        -9.5900   -0.9815   62.7236 C.ar    1  ZINC000587344575   -0.0700
     16 C16        -9.5570    0.3497   63.1479 C.ar    1  ZINC000587344575    0.0000
     17 C17        -8.6109    0.7632   64.1401 C.1     1  ZINC000587344575    0.2500
     18 N18        -7.8605    1.0913   64.9273 N.1     1  ZINC000587344575   -0.4000
     19 C19       -10.4496    1.2771   62.6010 C.ar    1  ZINC000587344575   -0.1000
     20 C20       -11.3547    0.8764   61.6423 C.ar    1  ZINC000587344575    0.1300
     21 F21       -12.2173    1.7711   61.1125 F       1  ZINC000587344575   -0.1200
     22 C22       -11.6189   -1.4048   59.0693 C.3     1  ZINC000587344575    0.0500
     23 C23       -14.7261   -2.8207   54.5638 C.ar    1  ZINC000587344575   -0.1400
     24 C24       -15.1534   -2.5113   53.2920 C.ar    1  ZINC000587344575   -0.0600
     25 C25       -14.2209   -2.1873   52.3029 C.ar    1  ZINC000587344575   -0.1600
     26 C26       -14.6754   -1.8546   50.9386 C.2     1  ZINC000587344575    0.5600
     27 O27       -14.9371   -2.7435   50.1514 O.2     1  ZINC000587344575   -0.5300
     28 N28       -14.8001   -0.5656   50.5654 N.am    1  ZINC000587344575   -0.7200
     29 C29       -15.2494   -0.2355   49.2106 C.3     1  ZINC000587344575    0.1400
     30 C30       -15.9027    1.1480   49.2129 C.3     1  ZINC000587344575   -0.1600
     31 C31       -14.0489   -0.2310   48.2620 C.3     1  ZINC000587344575   -0.1600
     32 H32       -11.7517   -0.7617   51.4669 H       1  ZINC000587344575    0.0800
     33 H33       -10.8814   -2.2776   51.8026 H       1  ZINC000587344575    0.0600
     34 H34       -12.1779   -2.2470   50.5833 H       1  ZINC000587344575    0.1000
     35 H35       -11.3821   -2.4967   54.1150 H       1  ZINC000587344575    0.1300
     36 H36       -12.6143   -4.0216   56.3522 H       1  ZINC000587344575    0.4100
     37 H37       -14.5591   -2.0371   59.0861 H       1  ZINC000587344575    0.0900
     38 H38       -14.0011   -3.6434   59.6585 H       1  ZINC000587344575    0.0900
     39 H39       -13.9819   -1.5564   61.3768 H       1  ZINC000587344575    0.0900
     40 H40       -12.5779   -2.6720   61.3431 H       1  ZINC000587344575    0.0600
     41 H41       -10.5258   -2.4056   61.4410 H       1  ZINC000587344575    0.1400
     42 H42        -8.9021   -1.6999   63.1445 H       1  ZINC000587344575    0.1400
     43 H43       -10.4267    2.3066   62.9266 H       1  ZINC000587344575    0.1500
     44 H44       -10.6454   -1.8044   59.3538 H       1  ZINC000587344575    0.0600
     45 H45       -11.4975   -0.6235   58.3190 H       1  ZINC000587344575    0.1100
     46 H46       -15.4464   -3.0677   55.3296 H       1  ZINC000587344575    0.1400
     47 H47       -16.2082   -2.5151   53.0601 H       1  ZINC000587344575    0.1300
     48 H48       -14.5923    0.1435   51.1937 H       1  ZINC000587344575    0.4000
     49 H49       -15.9735   -0.9786   48.8767 H       1  ZINC000587344575    0.0900
     50 H50       -15.1786    1.8912   49.5468 H       1  ZINC000587344575    0.0600
     51 H51       -16.2370    1.3936   48.2050 H       1  ZINC000587344575    0.0700
     52 H52       -16.7580    1.1448   49.8887 H       1  ZINC000587344575    0.0600
     53 H53       -13.3248    0.5122   48.5959 H       1  ZINC000587344575    0.0600
     54 H54       -13.5835   -1.2165   48.2604 H       1  ZINC000587344575    0.0600
     55 H55       -14.3832    0.0146   47.2541 H       1  ZINC000587344575    0.0700
@<TRIPOS>BOND
     1     1     2    1
     2     1    32    1
     3     1    33    1
     4     1    34    1
     5     2    25   ar
     6     2     3   ar
     7     3     4   ar
     8     3    35    1
     9     4     5    1
    10     4    23   ar
    11     5     6   am
    12     5    36    1
    13     6     7    2
    14     6     8    1
    15     8     9    1
    16     8    22    1
    17     8    10    1
    18    10    11    1
    19    10    37    1
    20    10    38    1
    21    11    12    1
    22    11    39    1
    23    11    40    1
    24    12    13    1
    25    12    22    1
    26    13    20   ar
    27    13    14   ar
    28    14    15   ar
    29    14    41    1
    30    15    16   ar
    31    15    42    1
    32    16    17    1
    33    16    19   ar
    34    17    18    3
    35    19    20   ar
    36    19    43    1
    37    20    21    1
    38    22    44    1
    39    22    45    1
    40    23    24   ar
    41    23    46    1
    42    24    25   ar
    43    24    47    1
    44    25    26    1
    45    26    27    2
    46    26    28   am
    47    28    29    1
    48    28    48    1
    49    29    30    1
    50    29    31    1
    51    29    49    1
    52    30    50    1
    53    30    51    1
    54    30    52    1
    55    31    53    1
    56    31    54    1
    57    31    55    1
@<TRIPOS>SUBSTRUCTURE
     1 ZINC000587344575        1 TEMP              0 ****  ****    0 ROOT


##########                                Name:    ZINC000656860804
##########                DOCK_Rotatable_Bonds:                   2
##########                         Heavy_Atoms:                  19
##########                    Molecular_Weight:             388.068
##########                DOCK_Rotatable_Bonds:                   2
##########                       Formal_Charge:          8.9407e-08
##########                     HBond_Acceptors:                   8
##########                        HBond_Donors:                   1
##########                         Heavy_Atoms:                  19
##########                          Grid_Score:          -28.458759
##########                     Grid_vdw_energy:          -26.956505
##########                      Grid_es_energy:           -1.502254
##########           Internal_energy_repulsive:           17.626308

@<TRIPOS>MOLECULE
ZINC000656860804
 28 29 1 0 0
SMALL
USER_CHARGES


@<TRIPOS>ATOM
      1 O1        -13.4357   -0.3075   62.8598 O.2     1  ZINC000656860804   -0.5400
      2 C2        -12.3775   -0.4905   62.2962 C.2     1  ZINC000656860804    0.5100
      3 C3        -12.3588   -1.3625   61.0705 C.3     1  ZINC000656860804    0.1100
      4 N4        -11.0659   -1.1986   60.3893 N.am    1  ZINC000656860804   -1.0000
      5 S5        -10.9717   -1.0573   58.7420 S.o2    1  ZINC000656860804    2.6900
      6 O6        -11.8464    0.0022   58.3795 O.2     1  ZINC000656860804   -0.9200
      7 O7         -9.5885   -1.0691   58.4167 O.2     1  ZINC000656860804   -0.9300
      8 C8        -11.6575   -2.5266   58.0525 C.ar    1  ZINC000656860804   -0.6500
      9 C9        -12.7763   -2.4536   57.2447 C.ar    1  ZINC000656860804    0.0100
     10 C10       -13.3152   -3.6070   56.7030 C.ar    1  ZINC000656860804   -0.0400
     11 Cl11      -14.7204   -3.5151   55.6877 Cl      1  ZINC000656860804   -0.0200
     12 C12       -12.7332   -4.8344   56.9704 C.ar    1  ZINC000656860804    0.0200
     13 Cl13      -13.4083   -6.2821   56.2906 Cl      1  ZINC000656860804   -0.0100
     14 C14       -11.6132   -4.9067   57.7791 C.ar    1  ZINC000656860804   -0.0900
     15 C15       -11.0721   -3.7524   58.3153 C.ar    1  ZINC000656860804    0.0100
     16 Br16       -9.5412   -3.8511   59.4208 Br      1  ZINC000656860804    0.0100
     17 C17        -9.8583   -1.1647   61.2315 C.3     1  ZINC000656860804    0.0900
     18 C18        -9.9664    0.0363   62.1731 C.3     1  ZINC000656860804    0.0800
     19 N19       -11.2849    0.0951   62.7884 N.am    1  ZINC000656860804   -0.7100
     20 H20       -12.4883   -2.4048   61.3620 H       1  ZINC000656860804    0.1200
     21 H21       -13.1651   -1.0666   60.3994 H       1  ZINC000656860804    0.1200
     22 H22       -13.2304   -1.4960   57.0365 H       1  ZINC000656860804    0.1700
     23 H23       -11.1590   -5.8639   57.9883 H       1  ZINC000656860804    0.1700
     24 H24        -9.7901   -2.0836   61.8139 H       1  ZINC000656860804    0.1000
     25 H25        -8.9741   -1.0607   60.6027 H       1  ZINC000656860804    0.1200
     26 H26        -9.2082   -0.0487   62.9516 H       1  ZINC000656860804    0.1000
     27 H27        -9.7972    0.9523   61.6070 H       1  ZINC000656860804    0.0800
     28 H28       -11.3738    0.5899   63.6180 H       1  ZINC000656860804    0.4000
@<TRIPOS>BOND
     1     1     2    2
     2     2    19   am
     3     2     3    1
     4     3     4    1
     5     3    20    1
     6     3    21    1
     7     4     5   am
     8     4    17    1
     9     5     6    2
    10     5     7    2
    11     5     8    1
    12     8    15   ar
    13     8     9   ar
    14     9    10   ar
    15     9    22    1
    16    10    11    1
    17    10    12   ar
    18    12    13    1
    19    12    14   ar
    20    14    15   ar
    21    14    23    1
    22    15    16    1
    23    17    18    1
    24    17    24    1
    25    17    25    1
    26    18    19    1
    27    18    26    1
    28    18    27    1
    29    19    28    1
@<TRIPOS>SUBSTRUCTURE
     1 ZINC000656860804        1 TEMP              0 ****  ****    0 ROOT


##########                                Name:    ZINC000341804698
##########                DOCK_Rotatable_Bonds:                   7
##########                         Heavy_Atoms:                  24
##########                    Molecular_Weight:             342.318
##########                DOCK_Rotatable_Bonds:                   7
##########                       Formal_Charge:                0.02
##########                     HBond_Acceptors:                   8
##########                        HBond_Donors:                   0
##########                         Heavy_Atoms:                  24
##########                          Grid_Score:          -28.320433
##########                     Grid_vdw_energy:          -28.205906
##########                      Grid_es_energy:           -0.114526
##########           Internal_energy_repulsive:           22.251381

@<TRIPOS>MOLECULE
ZINC000341804698
 41 42 1 0 0
SMALL
USER_CHARGES


@<TRIPOS>ATOM
      1 C1        -11.7393    1.7749   62.5174 C.3     1  ZINC000341804698    0.0300
      2 O2        -11.7109    1.1331   61.2409 O.3     1  ZINC000341804698   -0.3900
      3 C3        -11.9384   -0.2767   61.2939 C.3     1  ZINC000341804698    0.0700
      4 C4        -11.3244   -0.9391   60.0590 C.3     1  ZINC000341804698    0.0400
      5 C5        -10.4378    0.0188   59.3784 C.1     1  ZINC000341804698    0.2200
      6 N6         -9.7536    0.7580   58.8532 N.1     1  ZINC000341804698   -0.4200
      7 C7        -10.5162   -2.1660   60.4873 C.3     1  ZINC000341804698   -0.1200
      8 C8         -9.8747   -2.8065   59.2524 C.3     1  ZINC000341804698    0.1100
      9 N9        -10.9265   -3.0909   58.2667 N.am    1  ZINC000341804698   -0.6000
     10 C10       -11.0694   -4.3285   57.7526 C.2     1  ZINC000341804698    0.5700
     11 O11       -10.3239   -5.2221   58.1036 O.2     1  ZINC000341804698   -0.5200
     12 C12       -12.1327   -4.5991   56.7616 C.ar    1  ZINC000341804698   -0.0900
     13 C13       -13.3052   -5.2476   57.1520 C.ar    1  ZINC000341804698   -0.1100
     14 C14       -14.2957   -5.4988   56.2243 C.ar    1  ZINC000341804698   -0.0800
     15 C15       -14.1306   -5.1100   54.9080 C.ar    1  ZINC000341804698   -0.1700
     16 C16       -12.9673   -4.4648   54.5101 C.ar    1  ZINC000341804698    0.1100
     17 O17       -12.8101   -4.0852   53.2146 O.3     1  ZINC000341804698   -0.3100
     18 C18       -11.8965   -3.0166   52.9580 C.3     1  ZINC000341804698    0.6000
     19 F19       -12.0895   -2.0015   53.9011 F       1  ZINC000341804698   -0.1600
     20 F20       -10.5844   -3.4932   53.0475 F       1  ZINC000341804698   -0.1300
     21 F21       -12.1217   -2.5090   51.6740 F       1  ZINC000341804698   -0.1600
     22 C22       -11.9699   -4.2022   55.4339 C.ar    1  ZINC000341804698   -0.0700
     23 C23       -11.8201   -2.0005   57.8528 C.3     1  ZINC000341804698    0.0900
     24 C24       -12.4398   -1.3692   59.1034 C.3     1  ZINC000341804698   -0.1200
     25 H25       -12.7153    1.6237   62.9785 H       1  ZINC000341804698    0.0400
     26 H26       -10.9658    1.3480   63.1559 H       1  ZINC000341804698    0.0500
     27 H27       -11.5583    2.8423   62.3915 H       1  ZINC000341804698    0.0900
     28 H28       -11.4771   -0.6855   62.1928 H       1  ZINC000341804698    0.0700
     29 H29       -13.0108   -0.4711   61.3152 H       1  ZINC000341804698    0.0600
     30 H30        -9.7367   -1.8623   61.1860 H       1  ZINC000341804698    0.1000
     31 H31       -11.1768   -2.8868   60.9693 H       1  ZINC000341804698    0.0900
     32 H32        -9.1461   -2.1198   58.8214 H       1  ZINC000341804698    0.0700
     33 H33        -9.3804   -3.7352   59.5375 H       1  ZINC000341804698    0.1100
     34 H34       -13.4374   -5.5529   58.1795 H       1  ZINC000341804698    0.1400
     35 H35       -15.2025   -6.0009   56.5276 H       1  ZINC000341804698    0.1400
     36 H36       -14.9090   -5.3092   54.1864 H       1  ZINC000341804698    0.1400
     37 H37       -11.0647   -3.7001   55.1259 H       1  ZINC000341804698    0.1500
     38 H38       -11.2502   -1.2481   57.3076 H       1  ZINC000341804698    0.0800
     39 H39       -12.6095   -2.3974   57.2144 H       1  ZINC000341804698    0.1100
     40 H40       -13.0823   -2.0973   59.5984 H       1  ZINC000341804698    0.1000
     41 H41       -13.0295   -0.4981   58.8171 H       1  ZINC000341804698    0.0900
@<TRIPOS>BOND
     1     1     2    1
     2     1    25    1
     3     1    26    1
     4     1    27    1
     5     2     3    1
     6     3     4    1
     7     3    28    1
     8     3    29    1
     9     4    24    1
    10     4     5    1
    11     4     7    1
    12     5     6    3
    13     7     8    1
    14     7    30    1
    15     7    31    1
    16     8     9    1
    17     8    32    1
    18     8    33    1
    19     9    10   am
    20     9    23    1
    21    10    11    2
    22    10    12    1
    23    12    22   ar
    24    12    13   ar
    25    13    14   ar
    26    13    34    1
    27    14    15   ar
    28    14    35    1
    29    15    16   ar
    30    15    36    1
    31    16    17    1
    32    16    22   ar
    33    17    18    1
    34    18    19    1
    35    18    20    1
    36    18    21    1
    37    22    37    1
    38    23    24    1
    39    23    38    1
    40    23    39    1
    41    24    40    1
    42    24    41    1
@<TRIPOS>SUBSTRUCTURE
     1 ZINC000341804698        1 TEMP              0 ****  ****    0 ROOT


##########                                Name:    ZINC000517001504
##########                DOCK_Rotatable_Bonds:                   5
##########                         Heavy_Atoms:                  29
##########                    Molecular_Weight:             403.401
##########                DOCK_Rotatable_Bonds:                   5
##########                       Formal_Charge:          -0.0200002
##########                     HBond_Acceptors:                   7
##########                        HBond_Donors:                   0
##########                         Heavy_Atoms:                  29
##########                          Grid_Score:          -28.262505
##########                     Grid_vdw_energy:          -28.859442
##########                      Grid_es_energy:            0.596937
##########           Internal_energy_repulsive:           33.201614

@<TRIPOS>MOLECULE
ZINC000517001504
 49 52 1 0 0
SMALL
USER_CHARGES


@<TRIPOS>ATOM
      1 O1        -11.4068   -0.2678   55.3782 O.2     1  ZINC000517001504   -0.5200
      2 C2        -11.6204   -1.4616   55.3629 C.2     1  ZINC000517001504    0.5400
      3 N3        -11.4167   -2.1970   56.4739 N.am    1  ZINC000517001504   -0.6100
      4 C4        -11.6747   -3.6457   56.4811 C.3     1  ZINC000517001504    0.0600
      5 C5        -12.5581   -3.9734   57.6903 C.3     1  ZINC000517001504    0.0500
      6 O6        -11.9622   -3.4288   58.8701 O.3     1  ZINC000517001504   -0.3700
      7 C7        -11.8491   -2.0036   58.8642 C.3     1  ZINC000517001504    0.1200
      8 H8        -12.8354   -1.5607   58.7256 H       1  ZINC000517001504    0.0800
      9 C9        -11.2685   -1.5393   60.1751 C.ar    1  ZINC000517001504   -0.0600
     10 C10       -10.1922   -2.2067   60.7293 C.ar    1  ZINC000517001504   -0.0900
     11 C11        -9.6596   -1.7808   61.9318 C.ar    1  ZINC000517001504   -0.0700
     12 C12       -10.2031   -0.6873   62.5797 C.ar    1  ZINC000517001504   -0.1800
     13 C13        -9.6228   -0.2233   63.8909 C.3     1  ZINC000517001504    0.5100
     14 F14       -10.6321    0.3532   64.6695 F       1  ZINC000517001504   -0.1800
     15 F15        -9.0755   -1.3162   64.5715 F       1  ZINC000517001504   -0.1800
     16 F16        -8.6222    0.7240   63.6488 F       1  ZINC000517001504   -0.1800
     17 C17       -11.2785   -0.0192   62.0249 C.ar    1  ZINC000517001504   -0.0700
     18 C18       -11.8086   -0.4427   60.8204 C.ar    1  ZINC000517001504   -0.1000
     19 C19       -10.9240   -1.5760   57.7135 C.3     1  ZINC000517001504    0.0900
     20 C20       -12.1196   -2.1216   54.1035 C.3     1  ZINC000517001504   -0.0600
     21 C21       -13.5562   -2.5655   54.2042 C.ar    1  ZINC000517001504   -0.0700
     22 C22       -14.5583   -1.6292   54.3774 C.ar    1  ZINC000517001504   -0.1200
     23 C23       -15.8761   -2.0364   54.4698 C.ar    1  ZINC000517001504   -0.1100
     24 C24       -16.1918   -3.3798   54.3885 C.ar    1  ZINC000517001504   -0.1100
     25 C25       -15.1897   -4.3159   54.2143 C.ar    1  ZINC000517001504   -0.1100
     26 C26       -13.8724   -3.9083   54.1177 C.ar    1  ZINC000517001504   -0.1000
     27 C27       -11.8050   -1.3275   52.8240 C.3     1  ZINC000517001504   -0.1600
     28 C28       -10.5041   -2.1034   52.7653 C.2     1  ZINC000517001504    0.3600
     29 O29        -9.4084   -1.9212   52.2917 O.2     1  ZINC000517001504   -0.4100
     30 C30       -11.1748   -3.2069   53.5591 C.3     1  ZINC000517001504   -0.1900
     31 H31       -12.1880   -3.9318   55.5631 H       1  ZINC000517001504    0.1000
     32 H32       -10.7313   -4.1862   56.5585 H       1  ZINC000517001504    0.0800
     33 H33       -13.5469   -3.5377   57.5474 H       1  ZINC000517001504    0.0600
     34 H34       -12.6475   -5.0548   57.7935 H       1  ZINC000517001504    0.1100
     35 H35        -9.7677   -3.0610   60.2231 H       1  ZINC000517001504    0.1400
     36 H36        -8.8192   -2.3027   62.3652 H       1  ZINC000517001504    0.1400
     37 H37       -11.7027    0.8354   62.5309 H       1  ZINC000517001504    0.1400
     38 H38       -12.6488    0.0794   60.3870 H       1  ZINC000517001504    0.1400
     39 H39        -9.9063   -1.9085   57.9178 H       1  ZINC000517001504    0.0800
     40 H40       -10.9427   -0.4910   57.6114 H       1  ZINC000517001504    0.1100
     41 H41       -14.3117   -0.5797   54.4410 H       1  ZINC000517001504    0.1300
     42 H42       -16.6591   -1.3050   54.6059 H       1  ZINC000517001504    0.1300
     43 H43       -17.2213   -3.6980   54.4613 H       1  ZINC000517001504    0.1300
     44 H44       -15.4362   -5.3655   54.1510 H       1  ZINC000517001504    0.1300
     45 H45       -13.0894   -4.6398   53.9815 H       1  ZINC000517001504    0.1200
     46 H46       -12.4813   -1.5441   51.9971 H       1  ZINC000517001504    0.1300
     47 H47       -11.6700   -0.2593   52.9940 H       1  ZINC000517001504    0.1100
     48 H48       -10.5331   -3.6503   54.3205 H       1  ZINC000517001504    0.1000
     49 H49       -11.6744   -3.9508   52.9385 H       1  ZINC000517001504    0.1400
@<TRIPOS>BOND
     1     1     2    2
     2     2     3   am
     3     2    20    1
     4     3    19    1
     5     3     4    1
     6     4     5    1
     7     4    31    1
     8     4    32    1
     9     5     6    1
    10     5    33    1
    11     5    34    1
    12     6     7    1
    13     7     8    1
    14     7     9    1
    15     7    19    1
    16     9    18   ar
    17     9    10   ar
    18    10    11   ar
    19    10    35    1
    20    11    12   ar
    21    11    36    1
    22    12    13    1
    23    12    17   ar
    24    13    14    1
    25    13    15    1
    26    13    16    1
    27    17    18   ar
    28    17    37    1
    29    18    38    1
    30    19    39    1
    31    19    40    1
    32    20    30    1
    33    20    21    1
    34    20    27    1
    35    21    26   ar
    36    21    22   ar
    37    22    23   ar
    38    22    41    1
    39    23    24   ar
    40    23    42    1
    41    24    25   ar
    42    24    43    1
    43    25    26   ar
    44    25    44    1
    45    26    45    1
    46    27    28    1
    47    27    46    1
    48    27    47    1
    49    28    29    2
    50    28    30    1
    51    30    48    1
    52    30    49    1
@<TRIPOS>SUBSTRUCTURE
     1 ZINC000517001504        1 TEMP              0 ****  ****    0 ROOT


##########                                Name:      oleObject5.pdb
##########                DOCK_Rotatable_Bonds:                   5
##########                         Heavy_Atoms:                  24
##########                    Molecular_Weight:             323.438
##########                DOCK_Rotatable_Bonds:                   5
##########                       Formal_Charge:         0.000200074
##########                     HBond_Acceptors:                   4
##########                        HBond_Donors:                   2
##########                         Heavy_Atoms:                  24
##########                          Grid_Score:          -28.246395
##########                     Grid_vdw_energy:          -27.749811
##########                      Grid_es_energy:           -0.496583
##########           Internal_energy_repulsive:           12.653507

@<TRIPOS>MOLECULE
oleObject5.pdb
 49 51 1 0 0
SMALL
NO_CHARGES


@<TRIPOS>ATOM
      1 C         -11.3880   -5.0901   57.2789 C.3     1  UNL        -0.0394
      2 C         -12.5981   -4.1919   57.5163 C.ar    1  UNL        -0.0456
      3 C         -13.8653   -4.8019   57.5992 C.ar    1  UNL        -0.0590
      4 C         -15.0224   -4.0347   57.7943 C.ar    1  UNL        -0.0620
      5 C         -14.9235   -2.6424   57.9031 C.ar    1  UNL        -0.0619
      6 C         -13.6683   -2.0231   57.8197 C.ar    1  UNL        -0.0565
      7 C         -12.4925   -2.7812   57.6344 C.ar    1  UNL        -0.0188
      8 C         -11.1552   -2.0367   57.5221 C.3     1  UNL         0.0906
      9 N         -11.1450   -1.2319   56.2877 N.am    1  UNL        -0.3025
     10 C         -11.1585   -1.7912   55.0226 C.2     1  UNL         0.2156
     11 O         -11.3464   -2.9823   54.8439 O.2     1  UNL        -0.2774
     12 C         -11.1440   -0.7562   53.8816 C.3     1  UNL         0.0382
     13 C         -12.5825   -0.3487   53.4645 C.3     1  UNL        -0.0292
     14 C         -13.2805   -1.4626   52.6540 C.3     1  UNL        -0.0041
     15 N         -12.4827   -1.8237   51.4696 N.4     1  UNL        -0.3167
     16 C         -11.1225   -2.2856   51.7990 C.3     1  UNL        -0.0041
     17 C         -10.3485   -1.2368   52.6370 C.3     1  UNL        -0.0292
     18 C         -10.8562   -1.2047   58.7811 C.ar    1  UNL         0.0681
     19 N         -11.0797    0.1292   58.6933 N.ar    1  UNL        -0.2587
     20 C         -10.8459    0.9107   59.7643 C.ar    1  UNL         0.0272
     21 C         -10.3790    0.4014   60.9847 C.ar    1  UNL        -0.0435
     22 C         -10.1482   -0.9773   61.0924 C.ar    1  UNL        -0.0559
     23 C         -10.3887   -1.8034   59.9781 C.ar    1  UNL        -0.0272
     24 C         -10.1465   -3.3027   60.0977 C.3     1  UNL        -0.0379
     25 H         -11.6523   -6.1519   57.3577 H       1  UNL         0.0280
     26 H         -10.5932   -4.9069   58.0104 H       1  UNL         0.0280
     27 H         -10.9742   -4.9369   56.2763 H       1  UNL         0.0280
     28 H         -13.9573   -5.8806   57.5064 H       1  UNL         0.0626
     29 H         -15.9930   -4.5185   57.8548 H       1  UNL         0.0623
     30 H         -15.8176   -2.0426   58.0473 H       1  UNL         0.0623
     31 H         -13.6135   -0.9411   57.8935 H       1  UNL         0.0627
     32 H         -10.3401   -2.7606   57.4304 H       1  UNL         0.0624
     33 H         -11.5188   -0.2958   56.3728 H       1  UNL         0.1504
     34 H         -10.6394    0.1339   54.2794 H       1  UNL         0.0402
     35 H         -12.5327    0.5578   52.8474 H       1  UNL         0.0288
     36 H         -13.1876   -0.0926   54.3430 H       1  UNL         0.0288
     37 H         -14.2739   -1.1178   52.3406 H       1  UNL         0.0428
     38 H         -13.4187   -2.3453   53.2921 H       1  UNL         0.0428
     39 H         -12.4160   -1.0107   50.8583 H       1  UNL         0.1222
     40 H         -10.5688   -2.4912   50.8743 H       1  UNL         0.0428
     41 H         -11.1857   -3.2273   52.3582 H       1  UNL         0.0428
     42 H         -10.1374   -0.3697   51.9980 H       1  UNL         0.0288
     43 H          -9.3759   -1.6441   52.9418 H       1  UNL         0.0288
     44 H         -11.0389    1.9754   59.6394 H       1  UNL         0.0840
     45 H         -10.2018    1.0615   61.8287 H       1  UNL         0.0639
     46 H          -9.7894   -1.3964   62.0283 H       1  UNL         0.0627
     47 H          -9.7880   -3.5757   61.0980 H       1  UNL         0.0280
     48 H          -9.3904   -3.6400   59.3782 H       1  UNL         0.0280
     49 H         -11.0698   -3.8669   59.9184 H       1  UNL         0.0280
@<TRIPOS>BOND
     1     1     2    1
     2     1    25    1
     3     1    26    1
     4     1    27    1
     5     2     3   ar
     6     2     7   ar
     7     3     4   ar
     8     3    28    1
     9     4     5   ar
    10     4    29    1
    11     5     6   ar
    12     5    30    1
    13     6     7   ar
    14     6    31    1
    15     7     8    1
    16     8     9    1
    17     8    18    1
    18     8    32    1
    19     9    10   am
    20     9    33    1
    21    10    11    2
    22    10    12    1
    23    12    13    1
    24    12    17    1
    25    12    34    1
    26    13    14    1
    27    13    35    1
    28    13    36    1
    29    14    15    1
    30    14    37    1
    31    14    38    1
    32    15    16    1
    33    15    39    1
    34    16    17    1
    35    16    40    1
    36    16    41    1
    37    17    42    1
    38    17    43    1
    39    18    19   ar
    40    18    23   ar
    41    19    20   ar
    42    20    21   ar
    43    20    44    1
    44    21    22   ar
    45    21    45    1
    46    22    23   ar
    47    22    46    1
    48    23    24    1
    49    24    47    1
    50    24    48    1
    51    24    49    1
@<TRIPOS>SUBSTRUCTURE
     1 UNL         1 TEMP              0 ****  ****    0 ROOT


##########                                Name:    ZINC001013196242
##########                DOCK_Rotatable_Bonds:                   5
##########                         Heavy_Atoms:                  24
##########                    Molecular_Weight:              349.86
##########                DOCK_Rotatable_Bonds:                   5
##########                       Formal_Charge:        -3.05474e-07
##########                     HBond_Acceptors:                   6
##########                        HBond_Donors:                   1
##########                         Heavy_Atoms:                  24
##########                          Grid_Score:          -28.214018
##########                     Grid_vdw_energy:          -27.706951
##########                      Grid_es_energy:           -0.507066
##########           Internal_energy_repulsive:           14.378598

@<TRIPOS>MOLECULE
ZINC001013196242
 48 51 1 0 0
SMALL
USER_CHARGES


@<TRIPOS>ATOM
      1 C1        -12.9186   -0.5517   55.3641 C.3     1  ZINC001013196242   -0.1600
      2 C2        -11.4153   -0.8107   55.4815 C.3     1  ZINC001013196242    0.1400
      3 H3        -11.2359   -1.6582   56.1430 H       1  ZINC001013196242    0.0800
      4 C4        -10.7078    0.4449   56.0334 C.3     1  ZINC001013196242   -0.1400
      5 C5         -9.3838    0.4812   55.2252 C.3     1  ZINC001013196242    0.1300
      6 H6         -8.6392   -0.1819   55.6654 H       1  ZINC001013196242    0.1100
      7 N7         -8.8692    1.8489   55.1216 N.am    1  ZINC001013196242   -0.7200
      8 C8         -8.0702    2.3433   56.0878 C.2     1  ZINC001013196242    0.5400
      9 O9         -7.7759    1.6553   57.0422 O.2     1  ZINC001013196242   -0.5200
     10 C10        -7.5423    3.7508   55.9821 C.3     1  ZINC001013196242   -0.1400
     11 C11        -6.8487    4.2462   57.2634 C.3     1  ZINC001013196242   -0.0800
     12 C12        -5.5520    3.6704   56.6841 C.3     1  ZINC001013196242   -0.1600
     13 C13        -4.1160    3.9291   57.1259 C.3     1  ZINC001013196242   -0.1700
     14 C14        -4.7043    2.5181   57.2115 C.3     1  ZINC001013196242   -0.1400
     15 C15        -6.1698    3.8435   55.2923 C.3     1  ZINC001013196242   -0.0800
     16 C16        -9.8481   -0.0444   53.8439 C.3     1  ZINC001013196242    0.0800
     17 N17       -10.8500   -1.0855   54.1524 N.am    1  ZINC001013196242   -0.6000
     18 C18       -11.1887   -2.1126   53.3482 C.2     1  ZINC001013196242    0.6100
     19 O19       -10.6506   -2.2395   52.2640 O.2     1  ZINC001013196242   -0.5400
     20 C20       -12.2056   -3.0774   53.7795 C.2     1  ZINC001013196242   -0.0400
     21 C21       -12.0940   -3.9643   54.8295 C.2     1  ZINC001013196242   -0.1400
     22 C22       -13.2896   -4.6885   54.8848 C.2     1  ZINC001013196242   -0.1200
     23 Cl23      -13.6758   -5.9381   56.0263 Cl      1  ZINC001013196242   -0.0400
     24 C24       -14.0929   -4.2411   53.8893 C.2     1  ZINC001013196242    0.0400
     25 N25       -13.4472   -3.2582   53.2136 N.pl3   1  ZINC001013196242   -0.4000
     26 C26       -13.9795   -2.5178   52.0670 C.3     1  ZINC001013196242    0.0700
     27 H27       -13.4107   -1.4403   54.9687 H       1  ZINC001013196242    0.0700
     28 H28       -13.3252   -0.3188   56.3483 H       1  ZINC001013196242    0.0700
     29 H29       -13.0911    0.2887   54.6916 H       1  ZINC001013196242    0.0600
     30 H30       -11.3019    1.3382   55.8407 H       1  ZINC001013196242    0.0900
     31 H31       -10.5063    0.3369   57.0991 H       1  ZINC001013196242    0.0900
     32 H32        -9.1036    2.3988   54.3576 H       1  ZINC001013196242    0.4000
     33 H33        -8.2783    4.4498   55.5847 H       1  ZINC001013196242    0.1000
     34 H34        -6.8388    5.3316   57.3634 H       1  ZINC001013196242    0.1000
     35 H35        -7.1867    3.7394   58.1673 H       1  ZINC001013196242    0.0700
     36 H36        -3.3765    4.1200   56.3482 H       1  ZINC001013196242    0.1000
     37 H37        -3.9664    4.4698   58.0604 H       1  ZINC001013196242    0.0900
     38 H38        -4.9417    2.1308   58.2023 H       1  ZINC001013196242    0.0900
     39 H39        -4.3519    1.7809   56.4900 H       1  ZINC001013196242    0.1000
     40 H40        -5.9634    3.0140   54.6161 H       1  ZINC001013196242    0.0800
     41 H41        -5.9709    4.8169   54.8437 H       1  ZINC001013196242    0.0900
     42 H42       -10.3012    0.7601   53.2647 H       1  ZINC001013196242    0.0800
     43 H43        -9.0079   -0.4774   53.3009 H       1  ZINC001013196242    0.1000
     44 H44       -11.2436   -4.0786   55.4853 H       1  ZINC001013196242    0.1600
     45 H45       -15.0862   -4.6049   53.6720 H       1  ZINC001013196242    0.1800
     46 H46       -14.4233   -1.5839   52.4118 H       1  ZINC001013196242    0.0800
     47 H47       -13.1718   -2.3001   51.3683 H       1  ZINC001013196242    0.1000
     48 H48       -14.7397   -3.1186   51.5677 H       1  ZINC001013196242    0.0900
@<TRIPOS>BOND
     1     1     2    1
     2     1    27    1
     3     1    28    1
     4     1    29    1
     5     2     3    1
     6     2    17    1
     7     2     4    1
     8     4     5    1
     9     4    30    1
    10     4    31    1
    11     5     6    1
    12     5     7    1
    13     5    16    1
    14     7     8   am
    15     7    32    1
    16     8     9    2
    17     8    10    1
    18    10    15    1
    19    10    11    1
    20    10    33    1
    21    11    12    1
    22    11    34    1
    23    11    35    1
    24    12    14    1
    25    12    13    1
    26    12    15    1
    27    13    14    1
    28    13    36    1
    29    13    37    1
    30    14    38    1
    31    14    39    1
    32    15    40    1
    33    15    41    1
    34    16    17    1
    35    16    42    1
    36    16    43    1
    37    17    18   am
    38    18    19    2
    39    18    20    1
    40    20    25    1
    41    20    21    2
    42    21    22    1
    43    21    44    1
    44    22    23    1
    45    22    24    2
    46    24    25    1
    47    24    45    1
    48    25    26    1
    49    26    46    1
    50    26    47    1
    51    26    48    1
@<TRIPOS>SUBSTRUCTURE
     1 ZINC001013196242        1 TEMP              0 ****  ****    0 ROOT


##########                                Name:    ZINC001179023006
##########                DOCK_Rotatable_Bonds:                   3
##########                         Heavy_Atoms:                  25
##########                    Molecular_Weight:             340.465
##########                DOCK_Rotatable_Bonds:                   3
##########                       Formal_Charge:          -0.0100005
##########                     HBond_Acceptors:                   4
##########                        HBond_Donors:                   1
##########                         Heavy_Atoms:                  25
##########                          Grid_Score:          -28.211992
##########                     Grid_vdw_energy:          -27.845118
##########                      Grid_es_energy:           -0.366874
##########           Internal_energy_repulsive:           55.795635

@<TRIPOS>MOLECULE
ZINC001179023006
 53 56 1 0 0
SMALL
USER_CHARGES


@<TRIPOS>ATOM
      1 C1         -9.7736   -1.6510   61.5144 C.3     1  ZINC001179023006   -0.1500
      2 C2        -10.5727   -2.5070   60.5298 C.3     1  ZINC001179023006   -0.1100
      3 C3        -11.9361   -1.8591   60.2805 C.3     1  ZINC001179023006   -0.1100
      4 C4        -12.8175   -2.6801   59.3749 C.2     1  ZINC001179023006    0.5400
      5 O5        -13.8220   -3.1989   59.8138 O.2     1  ZINC001179023006   -0.5400
      6 N6        -12.4896   -2.8376   58.0771 N.am    1  ZINC001179023006   -0.5900
      7 C7        -11.2795   -2.2106   57.5286 C.3     1  ZINC001179023006    0.1000
      8 C8        -11.6575   -1.3889   56.2984 C.3     1  ZINC001179023006   -0.1200
      9 C9        -12.3987   -2.2867   55.2970 C.3     1  ZINC001179023006   -0.0500
     10 C10       -13.6923   -2.7895   55.9547 C.3     1  ZINC001179023006   -0.1100
     11 C11       -13.3382   -3.6349   57.1812 C.3     1  ZINC001179023006    0.0900
     12 C12       -12.7551   -1.4687   54.0658 C.3     1  ZINC001179023006   -0.0800
     13 C13       -11.5413   -0.8518   53.4410 C.ar    1  ZINC001179023006   -0.0700
     14 C14       -11.3482    0.5194   53.5757 C.ar    1  ZINC001179023006   -0.1100
     15 C15       -10.2081    1.1082   53.0653 C.ar    1  ZINC001179023006   -0.1100
     16 C16        -9.2574    0.3407   52.4191 C.ar    1  ZINC001179023006   -0.1200
     17 C17        -9.4589   -1.0205   52.2741 C.ar    1  ZINC001179023006   -0.1000
     18 C18       -10.6096   -1.5973   52.7816 C.ar    1  ZINC001179023006   -0.1100
     19 C19       -10.8478   -3.0749   52.6016 C.3     1  ZINC001179023006    0.1400
     20 N20       -10.8753   -3.7686   53.8701 N.am    1  ZINC001179023006   -0.7000
     21 C21       -11.5345   -3.4598   54.9570 C.2     1  ZINC001179023006    0.5200
     22 O22       -11.4249   -4.2713   55.8515 O.2     1  ZINC001179023006   -0.5500
     23 C23       -11.8497   -0.3773   59.8783 C.3     1  ZINC001179023006   -0.1200
     24 C24       -13.0776   -0.1447   60.7773 C.3     1  ZINC001179023006   -0.1400
     25 C25       -12.6395   -1.3905   61.5653 C.3     1  ZINC001179023006   -0.1300
     26 H26        -8.7879   -2.0921   61.6624 H       1  ZINC001179023006    0.0600
     27 H27        -9.6643   -0.6431   61.1140 H       1  ZINC001179023006    0.0500
     28 H28       -10.2993   -1.6080   62.4683 H       1  ZINC001179023006    0.0600
     29 H29       -10.7150   -3.5038   60.9473 H       1  ZINC001179023006    0.0700
     30 H30       -10.0284   -2.5818   59.5884 H       1  ZINC001179023006    0.0700
     31 H31       -10.8340   -1.5578   58.2792 H       1  ZINC001179023006    0.0900
     32 H32       -10.5652   -2.9829   57.2432 H       1  ZINC001179023006    0.0800
     33 H33       -10.7553   -0.9919   55.8330 H       1  ZINC001179023006    0.0800
     34 H34       -12.3055   -0.5652   56.5978 H       1  ZINC001179023006    0.0800
     35 H35       -14.2505   -3.3972   55.2425 H       1  ZINC001179023006    0.0800
     36 H36       -14.3000   -1.9385   56.2622 H       1  ZINC001179023006    0.0800
     37 H37       -12.7988   -4.5280   56.8660 H       1  ZINC001179023006    0.1200
     38 H38       -14.2512   -3.9223   57.7027 H       1  ZINC001179023006    0.0800
     39 H39       -13.2400   -2.1172   53.3360 H       1  ZINC001179023006    0.0800
     40 H40       -13.4483   -0.6779   54.3525 H       1  ZINC001179023006    0.0900
     41 H41       -12.0891    1.1227   54.0793 H       1  ZINC001179023006    0.1200
     42 H42       -10.0589    2.1725   53.1712 H       1  ZINC001179023006    0.1200
     43 H43        -8.3616    0.8012   52.0294 H       1  ZINC001179023006    0.1300
     44 H44        -8.7234   -1.6282   51.7682 H       1  ZINC001179023006    0.1300
     45 H45       -10.0507   -3.4914   51.9856 H       1  ZINC001179023006    0.0900
     46 H46       -11.8014   -3.2224   52.0946 H       1  ZINC001179023006    0.0800
     47 H47       -10.3318   -4.5703   53.9221 H       1  ZINC001179023006    0.4000
     48 H48       -10.9475    0.1199   60.2342 H       1  ZINC001179023006    0.0900
     49 H49       -12.0424   -0.2003   58.8201 H       1  ZINC001179023006    0.0800
     50 H50       -14.0276   -0.2686   60.2574 H       1  ZINC001179023006    0.0800
     51 H51       -13.0292    0.7775   61.3563 H       1  ZINC001179023006    0.0700
     52 H52       -13.4690   -2.0301   61.8671 H       1  ZINC001179023006    0.0700
     53 H53       -11.9536   -1.1708   62.3834 H       1  ZINC001179023006    0.0900
@<TRIPOS>BOND
     1     1     2    1
     2     1    26    1
     3     1    27    1
     4     1    28    1
     5     2     3    1
     6     2    29    1
     7     2    30    1
     8     3    25    1
     9     3     4    1
    10     3    23    1
    11     4     5    2
    12     4     6   am
    13     6    11    1
    14     6     7    1
    15     7     8    1
    16     7    31    1
    17     7    32    1
    18     8     9    1
    19     8    33    1
    20     8    34    1
    21     9    21    1
    22     9    10    1
    23     9    12    1
    24    10    11    1
    25    10    35    1
    26    10    36    1
    27    11    37    1
    28    11    38    1
    29    12    13    1
    30    12    39    1
    31    12    40    1
    32    13    18   ar
    33    13    14   ar
    34    14    15   ar
    35    14    41    1
    36    15    16   ar
    37    15    42    1
    38    16    17   ar
    39    16    43    1
    40    17    18   ar
    41    17    44    1
    42    18    19    1
    43    19    20    1
    44    19    45    1
    45    19    46    1
    46    20    21   am
    47    20    47    1
    48    21    22    2
    49    23    24    1
    50    23    48    1
    51    23    49    1
    52    24    25    1
    53    24    50    1
    54    24    51    1
    55    25    52    1
    56    25    53    1
@<TRIPOS>SUBSTRUCTURE
     1 ZINC001179023006        1 TEMP              0 ****  ****    0 ROOT


##########                                Name:    ZINC000252489163
##########                DOCK_Rotatable_Bonds:                   6
##########                         Heavy_Atoms:                  25
##########                    Molecular_Weight:             379.403
##########                DOCK_Rotatable_Bonds:                   6
##########                       Formal_Charge:          0.00999963
##########                     HBond_Acceptors:                  10
##########                        HBond_Donors:                   2
##########                         Heavy_Atoms:                  25
##########                          Grid_Score:          -28.134995
##########                     Grid_vdw_energy:          -26.823559
##########                      Grid_es_energy:           -1.311435
##########           Internal_energy_repulsive:           17.837795

@<TRIPOS>MOLECULE
ZINC000252489163
 45 46 1 0 0
SMALL
USER_CHARGES


@<TRIPOS>ATOM
      1 C1         -9.9470    2.3314   66.7571 C.3     1  ZINC000252489163   -0.1100
      2 C2        -10.2756    2.3304   65.2863 C.ar    1  ZINC000252489163   -0.0600
      3 C3        -10.0816    1.1867   64.5372 C.ar    1  ZINC000252489163   -0.1300
      4 C4        -10.3851    1.1863   63.1819 C.ar    1  ZINC000252489163    0.1700
      5 N5        -10.1902    0.0288   62.4199 N.am    1  ZINC000252489163   -0.6800
      6 C6        -11.2498   -0.6230   61.9012 C.2     1  ZINC000252489163    0.7100
      7 O7        -12.3750   -0.2052   62.0953 O.2     1  ZINC000252489163   -0.5500
      8 N8        -11.0620   -1.7378   61.1674 N.am    1  ZINC000252489163   -0.6200
      9 C9         -9.7084   -2.2548   60.9243 C.3     1  ZINC000252489163    0.1000
     10 C10        -9.5102   -2.4274   59.4151 C.3     1  ZINC000252489163   -0.1400
     11 C11       -10.6295   -3.3083   58.8551 C.3     1  ZINC000252489163   -0.1300
     12 C12       -11.9810   -2.6299   59.0904 C.3     1  ZINC000252489163    0.1400
     13 H13       -11.9859   -1.6520   58.6088 H       1  ZINC000252489163    0.0900
     14 N14       -13.0490   -3.4585   58.5256 N.am    1  ZINC000252489163   -1.1100
     15 S15       -14.6287   -3.1539   58.9184 S.o2    1  ZINC000252489163    2.6100
     16 C16       -15.5719   -4.4044   58.0033 C.3     1  ZINC000252489163   -0.6700
     17 O17       -14.6965   -3.4022   60.3159 O.2     1  ZINC000252489163   -0.9500
     18 O18       -14.8771   -1.8577   58.3916 O.2     1  ZINC000252489163   -0.9500
     19 C19       -12.2074   -2.4627   60.6007 C.3     1  ZINC000252489163    0.1100
     20 C20       -10.8826    2.3367   62.5846 C.ar    1  ZINC000252489163   -0.1000
     21 C21       -11.0744    3.4776   63.3395 C.ar    1  ZINC000252489163   -0.1600
     22 C22       -11.6144    4.7267   62.6920 C.3     1  ZINC000252489163    0.5100
     23 F23       -11.9503    5.6569   63.6814 F       1  ZINC000252489163   -0.1700
     24 F24       -10.6406    5.2734   61.8493 F       1  ZINC000252489163   -0.1800
     25 F25       -12.7533    4.4093   61.9442 F       1  ZINC000252489163   -0.1800
     26 C26       -10.7763    3.4731   64.6896 C.ar    1  ZINC000252489163   -0.0900
     27 H27       -10.8247    2.0241   67.3257 H       1  ZINC000252489163    0.0800
     28 H28        -9.1293    1.6363   66.9473 H       1  ZINC000252489163    0.0700
     29 H29        -9.6495    3.3347   67.0622 H       1  ZINC000252489163    0.0700
     30 H30        -9.6942    0.2935   65.0045 H       1  ZINC000252489163    0.1300
     31 H31        -9.2925   -0.3046   62.2651 H       1  ZINC000252489163    0.4100
     32 H32        -8.9729   -1.5494   61.3110 H       1  ZINC000252489163    0.0800
     33 H33        -9.5904   -3.2179   61.4209 H       1  ZINC000252489163    0.0800
     34 H34        -9.5384   -1.4515   58.9305 H       1  ZINC000252489163    0.0700
     35 H35        -8.5464   -2.9002   59.2264 H       1  ZINC000252489163    0.0900
     36 H36       -10.4771   -3.4530   57.7856 H       1  ZINC000252489163    0.0800
     37 H37       -10.6164   -4.2754   59.3577 H       1  ZINC000252489163    0.0800
     38 H38       -12.8308   -4.1853   57.9216 H       1  ZINC000252489163    0.4200
     39 H39       -15.2584   -5.3993   58.3195 H       1  ZINC000252489163    0.1300
     40 H40       -16.6353   -4.2772   58.2053 H       1  ZINC000252489163    0.1300
     41 H41       -15.3885   -4.2882   56.9351 H       1  ZINC000252489163    0.1300
     42 H42       -12.2935   -3.4436   61.0680 H       1  ZINC000252489163    0.0800
     43 H43       -13.1203   -1.8924   60.7723 H       1  ZINC000252489163    0.1100
     44 H44       -11.1192    2.3397   61.5308 H       1  ZINC000252489163    0.1800
     45 H45       -10.9274    4.3662   65.2777 H       1  ZINC000252489163    0.1300
@<TRIPOS>BOND
     1     1     2    1
     2     1    27    1
     3     1    28    1
     4     1    29    1
     5     2    26   ar
     6     2     3   ar
     7     3     4   ar
     8     3    30    1
     9     4     5    1
    10     4    20   ar
    11     5     6   am
    12     5    31    1
    13     6     7    2
    14     6     8   am
    15     8    19    1
    16     8     9    1
    17     9    10    1
    18     9    32    1
    19     9    33    1
    20    10    11    1
    21    10    34    1
    22    10    35    1
    23    11    12    1
    24    11    36    1
    25    11    37    1
    26    12    13    1
    27    12    14    1
    28    12    19    1
    29    14    15   am
    30    14    38    1
    31    15    16    1
    32    15    17    2
    33    15    18    2
    34    16    39    1
    35    16    40    1
    36    16    41    1
    37    19    42    1
    38    19    43    1
    39    20    21   ar
    40    20    44    1
    41    21    22    1
    42    21    26   ar
    43    22    23    1
    44    22    24    1
    45    22    25    1
    46    26    45    1
@<TRIPOS>SUBSTRUCTURE
     1 ZINC000252489163        1 TEMP              0 ****  ****    0 ROOT


##########                                Name:    ZINC001173835973
##########                DOCK_Rotatable_Bonds:                   4
##########                         Heavy_Atoms:                  26
##########                    Molecular_Weight:             343.388
##########                DOCK_Rotatable_Bonds:                   4
##########                       Formal_Charge:           -0.010001
##########                     HBond_Acceptors:                   6
##########                        HBond_Donors:                   4
##########                         Heavy_Atoms:                  26
##########                          Grid_Score:          -28.032743
##########                     Grid_vdw_energy:          -27.427765
##########                      Grid_es_energy:           -0.604978
##########           Internal_energy_repulsive:            5.985608

@<TRIPOS>MOLECULE
ZINC001173835973
 43 46 1 0 0
SMALL
USER_CHARGES


@<TRIPOS>ATOM
      1 C1         -6.2702    4.4081   56.8601 C.3     1  ZINC001173835973   -0.1700
      2 C2         -7.0656    3.1787   56.5036 C.2     1  ZINC001173835973    0.5100
      3 O3         -6.8056    2.1155   57.0263 O.2     1  ZINC001173835973   -0.5200
      4 N4         -8.0659    3.2606   55.6041 N.am    1  ZINC001173835973   -0.6800
      5 C5         -8.8045    2.1192   55.2732 C.ar    1  ZINC001173835973    0.1800
      6 C6         -8.5119    1.4142   54.1126 C.ar    1  ZINC001173835973   -0.1900
      7 C7         -9.2407    0.2866   53.7846 C.ar    1  ZINC001173835973   -0.0600
      8 C8        -10.2616   -0.1436   54.6093 C.ar    1  ZINC001173835973   -0.1900
      9 C9        -10.5596    0.5573   55.7723 C.ar    1  ZINC001173835973    0.2200
     10 N10       -11.5919    0.1221   56.6057 N.pl3   1  ZINC001173835973   -0.6900
     11 C11       -11.8415   -1.2473   56.7539 C.ar    1  ZINC001173835973    0.0400
     12 C12       -12.7685   -1.8560   55.9602 C.ar    1  ZINC001173835973    0.2400
     13 N13       -13.4630   -1.1067   55.0037 N.pl3   1  ZINC001173835973   -0.8600
     14 C14       -13.0414   -3.2822   56.1002 C.ar    1  ZINC001173835973   -0.1100
     15 C15       -13.9945   -3.9147   55.2854 C.ar    1  ZINC001173835973   -0.0600
     16 C16       -14.2094   -5.2550   55.4602 C.ar    1  ZINC001173835973   -0.1700
     17 C17       -13.4907   -5.9499   56.4257 C.ar    1  ZINC001173835973    0.1200
     18 N18       -12.6009   -5.3509   57.1839 N.ar    1  ZINC001173835973   -0.4400
     19 C19       -12.3474   -4.0499   57.0614 C.ar    1  ZINC001173835973    0.1900
     20 C20       -11.3497   -3.3949   57.9156 C.ar    1  ZINC001173835973    0.1300
     21 N21       -10.6768   -4.0875   58.8317 N.ar    1  ZINC001173835973   -0.4400
     22 C22        -9.7812   -3.5140   59.6029 C.ar    1  ZINC001173835973    0.1000
     23 C23        -9.4936   -2.1585   59.4995 C.ar    1  ZINC001173835973   -0.1500
     24 C24       -10.1520   -1.3916   58.5763 C.ar    1  ZINC001173835973   -0.0700
     25 C25       -11.1037   -2.0137   57.7523 C.ar    1  ZINC001173835973   -0.0400
     26 C26        -9.8259    1.6872   56.1069 C.ar    1  ZINC001173835973   -0.1900
     27 H27        -5.5109    4.1483   57.5977 H       1  ZINC001173835973    0.1000
     28 H28        -5.7879    4.8009   55.9651 H       1  ZINC001173835973    0.0900
     29 H29        -6.9365    5.1641   57.2754 H       1  ZINC001173835973    0.0900
     30 H30        -8.2739    4.1109   55.1862 H       1  ZINC001173835973    0.4100
     31 H31        -7.7142    1.7478   53.4655 H       1  ZINC001173835973    0.1200
     32 H32        -9.0114   -0.2591   52.8812 H       1  ZINC001173835973    0.1200
     33 H33       -10.8292   -1.0251   54.3502 H       1  ZINC001173835973    0.1200
     34 H34       -12.1360    0.7685   57.0820 H       1  ZINC001173835973    0.4000
     35 H35       -13.2282   -0.1780   54.8511 H       1  ZINC001173835973    0.4100
     36 H36       -14.1790   -1.5162   54.4933 H       1  ZINC001173835973    0.4000
     37 H37       -14.5436   -3.3579   54.5405 H       1  ZINC001173835973    0.1400
     38 H38       -14.9358   -5.7711   54.8500 H       1  ZINC001173835973    0.1400
     39 H39       -13.6682   -7.0072   56.5559 H       1  ZINC001173835973    0.1700
     40 H40        -9.2562   -4.1102   60.3348 H       1  ZINC001173835973    0.1600
     41 H41        -8.7530   -1.7111   60.1457 H       1  ZINC001173835973    0.1400
     42 H42        -9.9421   -0.3364   58.4817 H       1  ZINC001173835973    0.1400
     43 H43       -10.0550    2.2334   57.0099 H       1  ZINC001173835973    0.1400
@<TRIPOS>BOND
     1     1     2    1
     2     1    27    1
     3     1    28    1
     4     1    29    1
     5     2     3    2
     6     2     4   am
     7     4     5    1
     8     4    30    1
     9     5    26   ar
    10     5     6   ar
    11     6     7   ar
    12     6    31    1
    13     7     8   ar
    14     7    32    1
    15     8     9   ar
    16     8    33    1
    17     9    10    1
    18     9    26   ar
    19    10    11    1
    20    10    34    1
    21    11    25   ar
    22    11    12   ar
    23    12    13    1
    24    12    14   ar
    25    13    35    1
    26    13    36    1
    27    14    19   ar
    28    14    15   ar
    29    15    16   ar
    30    15    37    1
    31    16    17   ar
    32    16    38    1
    33    17    18   ar
    34    17    39    1
    35    18    19   ar
    36    19    20   ar
    37    20    25   ar
    38    20    21   ar
    39    21    22   ar
    40    22    23   ar
    41    22    40    1
    42    23    24   ar
    43    23    41    1
    44    24    25   ar
    45    24    42    1
    46    26    43    1
@<TRIPOS>SUBSTRUCTURE
     1 ZINC001173835973        1 TEMP              0 ****  ****    0 ROOT


##########                                Name:    ZINC000004040798
##########                DOCK_Rotatable_Bonds:                   3
##########                         Heavy_Atoms:                  22
##########                    Molecular_Weight:             361.151
##########                DOCK_Rotatable_Bonds:                   3
##########                       Formal_Charge:           0.0200003
##########                     HBond_Acceptors:                   6
##########                        HBond_Donors:                   1
##########                         Heavy_Atoms:                  22
##########                          Grid_Score:          -27.969818
##########                     Grid_vdw_energy:          -27.240158
##########                      Grid_es_energy:           -0.729659
##########           Internal_energy_repulsive:            2.116046

@<TRIPOS>MOLECULE
ZINC000004040798
 31 33 1 0 0
SMALL
USER_CHARGES


@<TRIPOS>ATOM
      1 O1         -6.8634    1.0502   49.4554 O.2     1  ZINC000004040798   -0.4800
      2 C2         -6.0903    1.2389   50.3758 C.2     1  ZINC000004040798    0.6100
      3 N3         -6.4973    1.0520   51.6469 N.am    1  ZINC000004040798   -0.6600
      4 C4         -7.8100    0.6465   51.9084 C.ar    1  ZINC000004040798    0.2300
      5 C5         -8.1682   -0.6872   51.7637 C.ar    1  ZINC000004040798   -0.1300
      6 C6         -9.4656   -1.0846   52.0226 C.ar    1  ZINC000004040798   -0.0100
      7 C7        -10.4076   -0.1563   52.4255 C.ar    1  ZINC000004040798   -0.0600
      8 N8        -11.7968   -0.5861   52.7019 N.pl3   1  ZINC000004040798    0.0300
      9 O9        -12.1089   -1.7565   52.5744 O.2     1  ZINC000004040798   -0.1500
     10 O10       -12.6278    0.2305   53.0570 O.2     1  ZINC000004040798   -0.1500
     11 C11       -10.0549    1.1730   52.5713 C.ar    1  ZINC000004040798    0.0000
     12 C12        -8.7577    1.5766   52.3191 C.ar    1  ZINC000004040798   -0.1400
     13 Br13       -8.2759    3.3943   52.5187 Br      1  ZINC000004040798    0.0000
     14 C14        -4.7112    1.6650   50.1010 C.2     1  ZINC000004040798   -0.0500
     15 C15        -3.7913    1.9921   51.0454 C.2     1  ZINC000004040798   -0.0800
     16 C16        -2.5739    2.3499   50.3183 C.ar    1  ZINC000004040798   -0.1500
     17 C17        -1.2980    2.7683   50.7025 C.ar    1  ZINC000004040798   -0.0500
     18 C18        -0.3553    3.0304   49.7483 C.ar    1  ZINC000004040798   -0.1400
     19 C19        -0.6580    2.8838   48.4017 C.ar    1  ZINC000004040798   -0.0700
     20 C20        -1.9111    2.4720   48.0020 C.ar    1  ZINC000004040798   -0.1100
     21 C21        -2.8861    2.1990   48.9542 C.ar    1  ZINC000004040798    0.0800
     22 O22        -4.1655    1.7848   48.8726 O.3     1  ZINC000004040798   -0.1900
     23 H23        -5.8797    1.1986   52.3804 H       1  ZINC000004040798    0.4300
     24 H24        -7.4332   -1.4132   51.4486 H       1  ZINC000004040798    0.1800
     25 H25        -9.7446   -2.1218   51.9098 H       1  ZINC000004040798    0.1700
     26 H26       -10.7930    1.8958   52.8862 H       1  ZINC000004040798    0.1700
     27 H27        -3.9310    1.9892   52.1164 H       1  ZINC000004040798    0.1800
     28 H28        -1.0574    2.8846   51.7489 H       1  ZINC000004040798    0.1400
     29 H29         0.6316    3.3541   50.0441 H       1  ZINC000004040798    0.1400
     30 H30         0.0968    3.0952   47.6588 H       1  ZINC000004040798    0.1400
     31 H31        -2.1349    2.3612   46.9512 H       1  ZINC000004040798    0.1400
@<TRIPOS>BOND
     1     1     2    2
     2     2     3   am
     3     2    14    1
     4     3     4    1
     5     3    23    1
     6     4    12   ar
     7     4     5   ar
     8     5     6   ar
     9     5    24    1
    10     6     7   ar
    11     6    25    1
    12     7     8    1
    13     7    11   ar
    14     8     9    2
    15     8    10    2
    16    11    12   ar
    17    11    26    1
    18    12    13    1
    19    14    22    1
    20    14    15    2
    21    15    16    1
    22    15    27    1
    23    16    21   ar
    24    16    17   ar
    25    17    18   ar
    26    17    28    1
    27    18    19   ar
    28    18    29    1
    29    19    20   ar
    30    19    30    1
    31    20    21   ar
    32    20    31    1
    33    21    22    1
@<TRIPOS>SUBSTRUCTURE
     1 ZINC000004040798        1 TEMP              0 ****  ****    0 ROOT


##########                                Name:    ZINC000647468483
##########                DOCK_Rotatable_Bonds:                   5
##########                         Heavy_Atoms:                  24
##########                    Molecular_Weight:             341.373
##########                DOCK_Rotatable_Bonds:                   5
##########                       Formal_Charge:           0.0300004
##########                     HBond_Acceptors:                   6
##########                        HBond_Donors:                   2
##########                         Heavy_Atoms:                  24
##########                          Grid_Score:          -27.925505
##########                     Grid_vdw_energy:          -28.277073
##########                      Grid_es_energy:            0.351568
##########           Internal_energy_repulsive:           19.164104

@<TRIPOS>MOLECULE
ZINC000647468483
 46 48 1 0 0
SMALL
USER_CHARGES


@<TRIPOS>ATOM
      1 O1         -8.0366   -0.0768   52.2702 O.co2   1  ZINC000647468483   -0.6800
      2 C2         -9.0091   -0.8003   52.1388 C.2     1  ZINC000647468483    0.5000
      3 O3         -8.9128   -1.8438   51.5154 O.co2   1  ZINC000647468483   -0.6900
      4 C4        -10.3286   -0.4081   52.7522 C.3     1  ZINC000647468483   -0.1500
      5 H5        -10.8624    0.2873   52.1045 H       1  ZINC000647468483    0.0800
      6 C6        -10.1194    0.2033   54.1599 C.3     1  ZINC000647468483   -0.1100
      7 C7        -11.4690   -0.0189   54.8732 C.3     1  ZINC000647468483   -0.1400
      8 C8        -12.1499   -1.2041   54.1664 C.3     1  ZINC000647468483    0.0100
      9 H9        -13.1000   -0.8867   53.7366 H       1  ZINC000647468483    0.1400
     10 N10       -12.3704   -2.2995   55.1201 N.4     1  ZINC000647468483   -0.5000
     11 H11       -12.0653   -3.1693   54.7096 H       1  ZINC000647468483    0.4200
     12 H12       -11.8446   -2.1226   55.9629 H       1  ZINC000647468483    0.4300
     13 C13       -13.8006   -2.3860   55.4442 C.3     1  ZINC000647468483    0.0200
     14 H14       -14.1339   -1.4597   55.9120 H       1  ZINC000647468483    0.1500
     15 C15       -14.6153   -2.6542   54.1667 C.3     1  ZINC000647468483   -0.1400
     16 C16       -15.3385   -4.0001   54.3795 C.3     1  ZINC000647468483   -0.1300
     17 C17       -14.4790   -4.7293   55.4419 C.3     1  ZINC000647468483   -0.1300
     18 C18       -14.0568   -3.5776   56.3898 C.3     1  ZINC000647468483   -0.0600
     19 H19       -14.8604   -3.3449   57.0886 H       1  ZINC000647468483    0.1300
     20 C20       -12.7997   -3.9429   57.1362 C.ar    1  ZINC000647468483   -0.1200
     21 C21       -12.3165   -5.2367   57.0846 C.ar    1  ZINC000647468483   -0.0700
     22 C22       -11.1632   -5.5718   57.7694 C.ar    1  ZINC000647468483   -0.1000
     23 C23       -10.4931   -4.6128   58.5054 C.ar    1  ZINC000647468483   -0.0600
     24 C24       -10.9761   -3.3183   58.5564 C.ar    1  ZINC000647468483   -0.1600
     25 C25       -10.2457   -2.2727   59.3593 C.3     1  ZINC000647468483    0.5000
     26 F26       -10.4020   -1.0234   58.7496 F       1  ZINC000647468483   -0.1700
     27 F27       -10.7712   -2.2285   60.6550 F       1  ZINC000647468483   -0.1700
     28 F28        -8.8858   -2.5960   59.4183 F       1  ZINC000647468483   -0.1700
     29 C29       -12.1267   -2.9823   57.8683 C.ar    1  ZINC000647468483   -0.1100
     30 C30       -11.1923   -1.6603   53.0435 C.3     1  ZINC000647468483   -0.1200
     31 H31        -9.3193   -0.3168   54.6866 H       1  ZINC000647468483    0.0800
     32 H32        -9.8986    1.2681   54.0843 H       1  ZINC000647468483    0.0800
     33 H33       -11.3014   -0.2568   55.9236 H       1  ZINC000647468483    0.0700
     34 H34       -12.0887    0.8736   54.7864 H       1  ZINC000647468483    0.1000
     35 H35       -15.3445   -1.8583   54.0150 H       1  ZINC000647468483    0.1000
     36 H36       -13.9494   -2.7200   53.3061 H       1  ZINC000647468483    0.0900
     37 H37       -16.3488   -3.8353   54.7538 H       1  ZINC000647468483    0.0800
     38 H38       -15.3629   -4.5710   53.4513 H       1  ZINC000647468483    0.0900
     39 H39       -15.0725   -5.4712   55.9761 H       1  ZINC000647468483    0.0900
     40 H40       -13.6052   -5.1907   54.9815 H       1  ZINC000647468483    0.0800
     41 H41       -12.8401   -5.9861   56.5094 H       1  ZINC000647468483    0.1400
     42 H42       -10.7861   -6.5830   57.7296 H       1  ZINC000647468483    0.1500
     43 H43        -9.5927   -4.8747   59.0410 H       1  ZINC000647468483    0.1500
     44 H44       -12.5039   -1.9711   57.9081 H       1  ZINC000647468483    0.1400
     45 H45       -11.7556   -1.9556   52.1583 H       1  ZINC000647468483    0.0900
     46 H46       -10.5638   -2.4815   53.3884 H       1  ZINC000647468483    0.1000
@<TRIPOS>BOND
     1     1     2   ar
     2     2     3   ar
     3     2     4    1
     4     4     5    1
     5     4    30    1
     6     4     6    1
     7     6     7    1
     8     6    31    1
     9     6    32    1
    10     7     8    1
    11     7    33    1
    12     7    34    1
    13     8     9    1
    14     8    10    1
    15     8    30    1
    16    10    11    1
    17    10    12    1
    18    10    13    1
    19    13    14    1
    20    13    18    1
    21    13    15    1
    22    15    16    1
    23    15    35    1
    24    15    36    1
    25    16    17    1
    26    16    37    1
    27    16    38    1
    28    17    18    1
    29    17    39    1
    30    17    40    1
    31    18    19    1
    32    18    20    1
    33    20    29   ar
    34    20    21   ar
    35    21    22   ar
    36    21    41    1
    37    22    23   ar
    38    22    42    1
    39    23    24   ar
    40    23    43    1
    41    24    25    1
    42    24    29   ar
    43    25    26    1
    44    25    27    1
    45    25    28    1
    46    29    44    1
    47    30    45    1
    48    30    46    1
@<TRIPOS>SUBSTRUCTURE
     1 ZINC000647468483        1 TEMP              0 ****  ****    0 ROOT


##########                                Name:    ZINC000455156110
##########                DOCK_Rotatable_Bonds:                   4
##########                         Heavy_Atoms:                  27
##########                    Molecular_Weight:             370.424
##########                DOCK_Rotatable_Bonds:                   4
##########                       Formal_Charge:           0.0100002
##########                     HBond_Acceptors:                   6
##########                        HBond_Donors:                   1
##########                         Heavy_Atoms:                  27
##########                          Grid_Score:          -27.888948
##########                     Grid_vdw_energy:          -27.506153
##########                      Grid_es_energy:           -0.382796
##########           Internal_energy_repulsive:           26.796667

@<TRIPOS>MOLECULE
ZINC000455156110
 50 53 1 0 0
SMALL
USER_CHARGES


@<TRIPOS>ATOM
      1 C1         -9.4170    4.3938   49.9293 C.3     1  ZINC000455156110    0.0300
      2 O2         -8.6098    3.2877   50.3380 O.3     1  ZINC000455156110   -0.3100
      3 C3         -9.1213    2.4714   51.2984 C.ar    1  ZINC000455156110    0.0900
      4 C4        -10.3527    2.7571   51.8666 C.ar    1  ZINC000455156110   -0.1600
      5 C5        -10.8733    1.9284   52.8422 C.ar    1  ZINC000455156110   -0.0800
      6 C6        -12.2121    2.2404   53.4597 C.3     1  ZINC000455156110   -0.1100
      7 C7        -10.1637    0.8086   53.2533 C.ar    1  ZINC000455156110    0.1500
      8 N8        -10.6924   -0.0321   54.2421 N.am    1  ZINC000455156110   -0.6700
      9 C9        -10.1404   -0.0567   55.4713 C.2     1  ZINC000455156110    0.7200
     10 O10        -9.1837    0.6505   55.7225 O.2     1  ZINC000455156110   -0.5500
     11 N11       -10.6489   -0.8652   56.4223 N.am    1  ZINC000455156110   -0.5600
     12 C12       -10.1404   -0.9744   57.7935 C.3     1  ZINC000455156110    0.1000
     13 C13       -11.0449   -2.0107   58.4714 C.3     1  ZINC000455156110   -0.0200
     14 C14       -10.2208   -3.2089   58.9369 C.3     1  ZINC000455156110   -0.1400
     15 C15        -9.2648   -2.7610   60.0469 C.3     1  ZINC000455156110    0.0600
     16 O16       -10.0163   -2.1747   61.1117 O.3     1  ZINC000455156110   -0.3800
     17 C17       -10.7541   -1.0099   60.7359 C.3     1  ZINC000455156110    0.0600
     18 C18       -11.7749   -1.3819   59.6560 C.3     1  ZINC000455156110   -0.1400
     19 C19       -12.0281   -2.4274   57.4065 C.ar    1  ZINC000455156110   -0.1300
     20 C20       -13.0741   -3.3295   57.4346 C.ar    1  ZINC000455156110   -0.0700
     21 C21       -13.8436   -3.5375   56.3049 C.ar    1  ZINC000455156110   -0.1400
     22 C22       -13.5644   -2.8401   55.1442 C.ar    1  ZINC000455156110   -0.0900
     23 C23       -12.5211   -1.9393   55.1106 C.ar    1  ZINC000455156110   -0.1300
     24 C24       -11.7432   -1.7192   56.2481 C.ar    1  ZINC000455156110    0.1600
     25 C25        -8.9301    0.5211   52.6842 C.ar    1  ZINC000455156110   -0.1200
     26 C26        -8.4119    1.3481   51.7052 C.ar    1  ZINC000455156110    0.0900
     27 F27        -7.2120    1.0692   51.1505 F       1  ZINC000455156110   -0.1300
     28 H28        -8.8928    4.9620   49.1609 H       1  ZINC000455156110    0.1000
     29 H29       -10.3614    4.0257   49.5283 H       1  ZINC000455156110    0.0600
     30 H30        -9.6127    5.0373   50.7870 H       1  ZINC000455156110    0.0600
     31 H31       -10.9056    3.6281   51.5470 H       1  ZINC000455156110    0.1400
     32 H32       -12.9999    1.7546   52.8840 H       1  ZINC000455156110    0.0800
     33 H33       -12.2332    1.8736   54.4860 H       1  ZINC000455156110    0.0600
     34 H34       -12.3715    3.3186   53.4559 H       1  ZINC000455156110    0.0800
     35 H35       -11.4556   -0.5962   54.0417 H       1  ZINC000455156110    0.4100
     36 H36        -9.1067   -1.3200   57.7877 H       1  ZINC000455156110    0.0800
     37 H37       -10.2167   -0.0140   58.3033 H       1  ZINC000455156110    0.0900
     38 H38       -10.8867   -3.9823   59.3198 H       1  ZINC000455156110    0.0800
     39 H39        -9.6465   -3.6038   58.0989 H       1  ZINC000455156110    0.0800
     40 H40        -8.7141   -3.6235   60.4224 H       1  ZINC000455156110    0.1000
     41 H41        -8.5642   -2.0269   59.6490 H       1  ZINC000455156110    0.0500
     42 H42       -11.2747   -0.6124   61.6071 H       1  ZINC000455156110    0.1000
     43 H43       -10.0700   -0.2563   60.3454 H       1  ZINC000455156110    0.0500
     44 H44       -12.2994   -0.4851   59.3262 H       1  ZINC000455156110    0.0800
     45 H45       -12.4916   -2.0954   60.0626 H       1  ZINC000455156110    0.0800
     46 H46       -13.2911   -3.8741   58.3416 H       1  ZINC000455156110    0.1300
     47 H47       -14.6606   -4.2433   56.3290 H       1  ZINC000455156110    0.1300
     48 H48       -14.1650   -3.0016   54.2613 H       1  ZINC000455156110    0.1300
     49 H49       -12.3076   -1.3980   54.2007 H       1  ZINC000455156110    0.1400
     50 H50        -8.3775   -0.3501   53.0037 H       1  ZINC000455156110    0.1700
@<TRIPOS>BOND
     1     1     2    1
     2     1    28    1
     3     1    29    1
     4     1    30    1
     5     2     3    1
     6     3    26   ar
     7     3     4   ar
     8     4     5   ar
     9     4    31    1
    10     5     6    1
    11     5     7   ar
    12     6    32    1
    13     6    33    1
    14     6    34    1
    15     7     8    1
    16     7    25   ar
    17     8     9   am
    18     8    35    1
    19     9    10    2
    20     9    11   am
    21    11    24    1
    22    11    12    1
    23    12    13    1
    24    12    36    1
    25    12    37    1
    26    13    18    1
    27    13    14    1
    28    13    19    1
    29    14    15    1
    30    14    38    1
    31    14    39    1
    32    15    16    1
    33    15    40    1
    34    15    41    1
    35    16    17    1
    36    17    18    1
    37    17    42    1
    38    17    43    1
    39    18    44    1
    40    18    45    1
    41    19    24   ar
    42    19    20   ar
    43    20    21   ar
    44    20    46    1
    45    21    22   ar
    46    21    47    1
    47    22    23   ar
    48    22    48    1
    49    23    24   ar
    50    23    49    1
    51    25    26   ar
    52    25    50    1
    53    26    27    1
@<TRIPOS>SUBSTRUCTURE
     1 ZINC000455156110        1 TEMP              0 ****  ****    0 ROOT


##########                                Name:    ZINC000426607143
##########                DOCK_Rotatable_Bonds:                   3
##########                         Heavy_Atoms:                  25
##########                    Molecular_Weight:             419.302
##########                DOCK_Rotatable_Bonds:                   3
##########                       Formal_Charge:         1.49012e-07
##########                     HBond_Acceptors:                   7
##########                        HBond_Donors:                   0
##########                         Heavy_Atoms:                  25
##########                          Grid_Score:          -27.872089
##########                     Grid_vdw_energy:          -27.705669
##########                      Grid_es_energy:           -0.166420
##########           Internal_energy_repulsive:           17.547087

@<TRIPOS>MOLECULE
ZINC000426607143
 40 43 1 0 0
SMALL
USER_CHARGES


@<TRIPOS>ATOM
      1 C1        -11.3682    1.7156   53.9453 C.3     1  ZINC000426607143   -0.0900
      2 C2         -9.9741    1.5697   53.3917 C.2     1  ZINC000426607143    0.1600
      3 N3         -9.1166    2.5425   53.4443 N.2     1  ZINC000426607143   -0.4600
      4 S4         -7.6808    1.9960   52.7274 S.3     1  ZINC000426607143    0.2900
      5 C5         -8.2594    0.4201   52.3517 C.2     1  ZINC000426607143   -0.1300
      6 C6         -7.5032   -0.6910   51.6700 C.3     1  ZINC000426607143   -0.0800
      7 C7         -9.5443    0.3863   52.8063 C.2     1  ZINC000426607143   -0.1200
      8 C8        -10.4121   -0.8095   52.6777 C.2     1  ZINC000426607143    0.2500
      9 N9        -10.3237   -1.7386   51.7608 N.2     1  ZINC000426607143   -0.3700
     10 O10       -11.1805   -2.5791   51.9354 O.3     1  ZINC000426607143    0.0900
     11 C11       -11.9189   -2.2653   53.0045 C.2     1  ZINC000426607143    0.2000
     12 C12       -13.0807   -3.0533   53.5523 C.3     1  ZINC000426607143   -0.0300
     13 H13       -13.9304   -3.0016   52.8717 H       1  ZINC000426607143    0.1600
     14 C14       -12.6705   -4.5243   53.7951 C.3     1  ZINC000426607143   -0.1200
     15 C15       -13.4541   -4.8614   55.0830 C.3     1  ZINC000426607143    0.1000
     16 N16       -13.6634   -3.5769   55.7616 N.am    1  ZINC000426607143   -0.5800
     17 C17       -14.0226   -3.4443   57.1078 C.ar    1  ZINC000426607143    0.1700
     18 C18       -15.3511   -3.5725   57.4892 C.ar    1  ZINC000426607143   -0.1000
     19 C19       -15.7025   -3.4410   58.8189 C.ar    1  ZINC000426607143   -0.1000
     20 C20       -14.7329   -3.1814   59.7696 C.ar    1  ZINC000426607143   -0.1000
     21 C21       -13.4082   -3.0529   59.3936 C.ar    1  ZINC000426607143   -0.0900
     22 C22       -13.0492   -3.1894   58.0664 C.ar    1  ZINC000426607143   -0.0800
     23 Br23      -11.2378   -3.0136   57.5528 Br      1  ZINC000426607143   -0.0400
     24 C24       -13.4680   -2.5421   54.9225 C.2     1  ZINC000426607143    0.5300
     25 O25       -13.5822   -1.3726   55.2234 O.2     1  ZINC000426607143   -0.4900
     26 N26       -11.4398   -1.1470   53.4897 N.2     1  ZINC000426607143   -0.4600
     27 H27       -11.3758    1.4175   54.9937 H       1  ZINC000426607143    0.0900
     28 H28       -11.6858    2.7549   53.8609 H       1  ZINC000426607143    0.0800
     29 H29       -12.0512    1.0800   53.3819 H       1  ZINC000426607143    0.1100
     30 H30        -6.4945   -0.3522   51.4336 H       1  ZINC000426607143    0.0800
     31 H31        -7.4505   -1.5546   52.3329 H       1  ZINC000426607143    0.0900
     32 H32        -8.0177   -0.9696   50.7504 H       1  ZINC000426607143    0.0900
     33 H33       -12.9878   -5.1593   52.9680 H       1  ZINC000426607143    0.1100
     34 H34       -11.5962   -4.6076   53.9591 H       1  ZINC000426607143    0.1000
     35 H35       -14.4126   -5.3165   54.8331 H       1  ZINC000426607143    0.0900
     36 H36       -12.8710   -5.5313   55.7150 H       1  ZINC000426607143    0.0900
     37 H37       -16.1094   -3.7746   56.7473 H       1  ZINC000426607143    0.1400
     38 H38       -16.7360   -3.5407   59.1159 H       1  ZINC000426607143    0.1400
     39 H39       -15.0106   -3.0783   60.8082 H       1  ZINC000426607143    0.1400
     40 H40       -12.6532   -2.8501   60.1387 H       1  ZINC000426607143    0.1400
@<TRIPOS>BOND
     1     1     2    1
     2     1    27    1
     3     1    28    1
     4     1    29    1
     5     2     7    1
     6     2     3    2
     7     3     4    1
     8     4     5    1
     9     5     6    1
    10     5     7    2
    11     6    30    1
    12     6    31    1
    13     6    32    1
    14     7     8    1
    15     8    26    1
    16     8     9    2
    17     9    10    1
    18    10    11    1
    19    11    12    1
    20    11    26    2
    21    12    13    1
    22    12    24    1
    23    12    14    1
    24    14    15    1
    25    14    33    1
    26    14    34    1
    27    15    16    1
    28    15    35    1
    29    15    36    1
    30    16    17    1
    31    16    24   am
    32    17    22   ar
    33    17    18   ar
    34    18    19   ar
    35    18    37    1
    36    19    20   ar
    37    19    38    1
    38    20    21   ar
    39    20    39    1
    40    21    22   ar
    41    21    40    1
    42    22    23    1
    43    24    25    2
@<TRIPOS>SUBSTRUCTURE
     1 ZINC000426607143        1 TEMP              0 ****  ****    0 ROOT


##########                                Name:    ZINC000187810810
##########                DOCK_Rotatable_Bonds:                   7
##########                         Heavy_Atoms:                  27
##########                    Molecular_Weight:             386.414
##########                DOCK_Rotatable_Bonds:                   7
##########                       Formal_Charge:           0.0599998
##########                     HBond_Acceptors:                   8
##########                        HBond_Donors:                   1
##########                         Heavy_Atoms:                  27
##########                          Grid_Score:          -27.802120
##########                     Grid_vdw_energy:          -28.067724
##########                      Grid_es_energy:            0.265603
##########           Internal_energy_repulsive:           44.666206

@<TRIPOS>MOLECULE
ZINC000187810810
 52 53 1 0 0
SMALL
USER_CHARGES


@<TRIPOS>ATOM
      1 C1        -12.8553   -4.2897   57.4874 C.3     1  ZINC000187810810   -0.1800
      2 C2        -13.4434   -4.4874   56.0888 C.3     1  ZINC000187810810    0.1400
      3 C3        -14.0396   -5.8922   55.9801 C.3     1  ZINC000187810810   -0.1800
      4 C4        -14.5392   -3.4480   55.8448 C.3     1  ZINC000187810810   -0.1400
      5 O5        -12.3956   -4.3282   55.0963 O.3     1  ZINC000187810810   -0.3600
      6 C6        -12.7698   -3.9022   53.8752 C.2     1  ZINC000187810810    0.6500
      7 O7        -13.4953   -4.5926   53.1870 O.2     1  ZINC000187810810   -0.5600
      8 N8        -12.3398   -2.7103   53.4161 N.am    1  ZINC000187810810   -0.6000
      9 C9        -11.4558   -1.8680   54.2335 C.3     1  ZINC000187810810    0.1100
     10 C10       -12.0788   -0.4740   54.3570 C.3     1  ZINC000187810810   -0.1400
     11 C11       -12.3591    0.0808   52.9584 C.3     1  ZINC000187810810    0.1800
     12 C12       -12.9495    1.4874   53.0770 C.3     1  ZINC000187810810   -0.1600
     13 N13       -11.1091    0.1388   52.1968 N.am    1  ZINC000187810810   -0.7100
     14 C14       -10.0788    0.8813   52.6482 C.2     1  ZINC000187810810    0.5500
     15 O15       -10.1873    1.5040   53.6864 O.2     1  ZINC000187810810   -0.5100
     16 C16        -8.8165    0.9385   51.8804 C.ar    1  ZINC000187810810   -0.0900
     17 C17        -8.1824   -0.2404   51.4855 C.ar    1  ZINC000187810810   -0.0900
     18 C18        -7.0049   -0.1800   50.7688 C.ar    1  ZINC000187810810   -0.0900
     19 C19        -6.4526    1.0456   50.4420 C.ar    1  ZINC000187810810   -0.0900
     20 C20        -7.0760    2.2182   50.8309 C.ar    1  ZINC000187810810   -0.0800
     21 C21        -8.2568    2.1719   51.5424 C.ar    1  ZINC000187810810   -0.1300
     22 C22        -8.9347    3.4499   51.9648 C.3     1  ZINC000187810810    0.5200
     23 F23        -8.4148    4.5192   51.2275 F       1  ZINC000187810810   -0.1800
     24 F24       -10.3103    3.3474   51.7311 F       1  ZINC000187810810   -0.1600
     25 F25        -8.7083    3.6694   53.3278 F       1  ZINC000187810810   -0.1600
     26 C26       -13.3541   -0.8306   52.2362 C.3     1  ZINC000187810810   -0.1500
     27 C27       -12.7410   -2.2312   52.0864 C.3     1  ZINC000187810810    0.1300
     28 H28       -12.0746   -5.0302   57.6613 H       1  ZINC000187810810    0.0900
     29 H29       -12.4306   -3.2889   57.5648 H       1  ZINC000187810810    0.0600
     30 H30       -13.6419   -4.4092   58.2325 H       1  ZINC000187810810    0.0700
     31 H31       -14.8261   -6.0118   56.7251 H       1  ZINC000187810810    0.0700
     32 H32       -14.4586   -6.0331   54.9837 H       1  ZINC000187810810    0.0600
     33 H33       -13.2588   -6.6328   56.1540 H       1  ZINC000187810810    0.0900
     34 H34       -14.1145   -2.4471   55.9221 H       1  ZINC000187810810    0.0700
     35 H35       -14.9581   -3.5888   54.8484 H       1  ZINC000187810810    0.0700
     36 H36       -15.3258   -3.5675   56.5898 H       1  ZINC000187810810    0.0800
     37 H37       -11.3455   -2.3081   55.2245 H       1  ZINC000187810810    0.1000
     38 H38       -10.4795   -1.7909   53.7548 H       1  ZINC000187810810    0.0700
     39 H39       -13.0122   -0.5408   54.9157 H       1  ZINC000187810810    0.0900
     40 H40       -11.3882    0.1881   54.8792 H       1  ZINC000187810810    0.0900
     41 H41       -12.2405    2.1369   53.5903 H       1  ZINC000187810810    0.0600
     42 H42       -13.1493    1.8827   52.0810 H       1  ZINC000187810810    0.0800
     43 H43       -13.8794    1.4445   53.6441 H       1  ZINC000187810810    0.0700
     44 H44       -11.0228   -0.3571   51.3676 H       1  ZINC000187810810    0.4000
     45 H45        -8.6123   -1.1977   51.7406 H       1  ZINC000187810810    0.1400
     46 H46        -6.5132   -1.0915   50.4626 H       1  ZINC000187810810    0.1400
     47 H47        -5.5306    1.0873   49.8812 H       1  ZINC000187810810    0.1400
     48 H48        -6.6394    3.1717   50.5730 H       1  ZINC000187810810    0.1500
     49 H49       -14.2756   -0.8941   52.8150 H       1  ZINC000187810810    0.0800
     50 H50       -13.5712   -0.4223   51.2491 H       1  ZINC000187810810    0.1000
     51 H51       -11.8706   -2.1810   51.4322 H       1  ZINC000187810810    0.0700
     52 H52       -13.4808   -2.9104   51.6625 H       1  ZINC000187810810    0.1000
@<TRIPOS>BOND
     1     1     2    1
     2     1    28    1
     3     1    29    1
     4     1    30    1
     5     2     3    1
     6     2     4    1
     7     2     5    1
     8     3    31    1
     9     3    32    1
    10     3    33    1
    11     4    34    1
    12     4    35    1
    13     4    36    1
    14     5     6    1
    15     6     7    2
    16     6     8   am
    17     8    27    1
    18     8     9    1
    19     9    10    1
    20     9    37    1
    21     9    38    1
    22    10    11    1
    23    10    39    1
    24    10    40    1
    25    11    12    1
    26    11    13    1
    27    11    26    1
    28    12    41    1
    29    12    42    1
    30    12    43    1
    31    13    14   am
    32    13    44    1
    33    14    15    2
    34    14    16    1
    35    16    21   ar
    36    16    17   ar
    37    17    18   ar
    38    17    45    1
    39    18    19   ar
    40    18    46    1
    41    19    20   ar
    42    19    47    1
    43    20    21   ar
    44    20    48    1
    45    21    22    1
    46    22    23    1
    47    22    24    1
    48    22    25    1
    49    26    27    1
    50    26    49    1
    51    26    50    1
    52    27    51    1
    53    27    52    1
@<TRIPOS>SUBSTRUCTURE
     1 ZINC000187810810        1 TEMP              0 ****  ****    0 ROOT


##########                                Name:    ZINC000793092912
##########                DOCK_Rotatable_Bonds:                   4
##########                         Heavy_Atoms:                  26
##########                    Molecular_Weight:               407.2
##########                DOCK_Rotatable_Bonds:                   4
##########                       Formal_Charge:         2.90573e-07
##########                     HBond_Acceptors:                  10
##########                        HBond_Donors:                   1
##########                         Heavy_Atoms:                  26
##########                          Grid_Score:          -27.683241
##########                     Grid_vdw_energy:          -27.648001
##########                      Grid_es_energy:           -0.035239
##########           Internal_energy_repulsive:           10.085444

@<TRIPOS>MOLECULE
ZINC000793092912
 40 43 1 0 0
SMALL
USER_CHARGES


@<TRIPOS>ATOM
      1 C1        -10.2328   -1.6829   58.7172 C.3     1  ZINC000793092912   -0.1300
      2 C2        -11.3392   -2.3685   57.9130 C.3     1  ZINC000793092912   -0.0800
      3 C3        -11.3936   -1.9970   56.4391 C.3     1  ZINC000793092912   -0.1100
      4 C4        -11.4297   -3.2149   55.5352 C.3     1  ZINC000793092912    0.1100
      5 N5        -12.3028   -4.2533   56.0558 N.am    1  ZINC000793092912   -0.5700
      6 C6        -13.3019   -4.7128   55.2767 C.2     1  ZINC000793092912    0.5100
      7 O7        -14.0439   -5.5798   55.6898 O.2     1  ZINC000793092912   -0.5100
      8 C8        -13.4961   -4.1552   53.9050 C.2     1  ZINC000793092912    0.5100
      9 O9        -12.8495   -4.5921   52.9752 O.2     1  ZINC000793092912   -0.4900
     10 N10       -14.3891   -3.1669   53.6995 N.am    1  ZINC000793092912   -0.6400
     11 C11       -14.5708   -2.6447   52.4149 C.ar    1  ZINC000793092912    0.1600
     12 C12       -13.7655   -1.6058   51.9671 C.ar    1  ZINC000793092912   -0.1200
     13 C13       -13.9440   -1.0888   50.6981 C.ar    1  ZINC000793092912   -0.0600
     14 C14       -14.9270   -1.6048   49.8692 C.ar    1  ZINC000793092912    0.0200
     15 O15       -15.3006   -1.2768   48.5971 O.3     1  ZINC000793092912   -0.2800
     16 C16       -16.0702   -2.3970   48.1217 C.3     1  ZINC000793092912    0.5700
     17 F17       -17.0952   -1.9647   47.2734 F       1  ZINC000793092912   -0.1100
     18 F18       -15.2455   -3.3166   47.4648 F       1  ZINC000793092912   -0.1500
     19 O19       -16.6167   -2.9716   49.3234 O.3     1  ZINC000793092912   -0.2800
     20 C20       -15.7369   -2.6472   50.3156 C.ar    1  ZINC000793092912    0.0500
     21 C21       -15.5535   -3.1689   51.5845 C.ar    1  ZINC000793092912   -0.0900
     22 C22       -12.1367   -4.8152   57.3877 C.3     1  ZINC000793092912    0.1100
     23 C23       -11.8032   -3.7307   58.4014 C.3     1  ZINC000793092912   -0.1200
     24 H24       -11.3025   -4.0893   59.3008 H       1  ZINC000793092912    0.1400
     25 C25       -12.7048   -2.5223   58.6038 C.3     1  ZINC000793092912    0.0000
     26 Cl26      -12.8848   -1.8880   60.2819 Cl      1  ZINC000793092912   -0.0800
     27 Cl27      -14.1686   -2.3899   57.5593 Cl      1  ZINC000793092912   -0.0900
     28 H28        -9.3426   -2.3121   58.7202 H       1  ZINC000793092912    0.0800
     29 H29        -9.9961   -0.7209   58.2626 H       1  ZINC000793092912    0.0700
     30 H30       -10.5713   -1.5273   59.7414 H       1  ZINC000793092912    0.0700
     31 H31       -12.2859   -1.3975   56.2591 H       1  ZINC000793092912    0.0900
     32 H32       -10.5149   -1.4008   56.1929 H       1  ZINC000793092912    0.1000
     33 H33       -11.7849   -2.9143   54.5495 H       1  ZINC000793092912    0.1100
     34 H34       -10.4204   -3.6154   55.4396 H       1  ZINC000793092912    0.0800
     35 H35       -14.9057   -2.8178   54.4426 H       1  ZINC000793092912    0.4300
     36 H36       -12.9990   -1.2012   52.6114 H       1  ZINC000793092912    0.1500
     37 H37       -13.3164   -0.2810   50.3519 H       1  ZINC000793092912    0.1500
     38 H38       -16.1764   -3.9805   51.9301 H       1  ZINC000793092912    0.1600
     39 H39       -13.0672   -5.2947   57.6915 H       1  ZINC000793092912    0.1400
     40 H40       -11.3428   -5.5618   57.3639 H       1  ZINC000793092912    0.1000
@<TRIPOS>BOND
     1     1     2    1
     2     1    28    1
     3     1    29    1
     4     1    30    1
     5     2    23    1
     6     2    25    1
     7     2     3    1
     8     3     4    1
     9     3    31    1
    10     3    32    1
    11     4     5    1
    12     4    33    1
    13     4    34    1
    14     5     6   am
    15     5    22    1
    16     6     7    2
    17     6     8    1
    18     8     9    2
    19     8    10   am
    20    10    11    1
    21    10    35    1
    22    11    21   ar
    23    11    12   ar
    24    12    13   ar
    25    12    36    1
    26    13    14   ar
    27    13    37    1
    28    14    20   ar
    29    14    15    1
    30    15    16    1
    31    16    17    1
    32    16    18    1
    33    16    19    1
    34    19    20    1
    35    20    21   ar
    36    21    38    1
    37    22    23    1
    38    22    39    1
    39    22    40    1
    40    23    24    1
    41    23    25    1
    42    25    26    1
    43    25    27    1
@<TRIPOS>SUBSTRUCTURE
     1 ZINC000793092912        1 TEMP              0 ****  ****    0 ROOT


##########                                Name:    ZINC000371438955
##########                DOCK_Rotatable_Bonds:                   4
##########                         Heavy_Atoms:                  25
##########                    Molecular_Weight:             387.499
##########                DOCK_Rotatable_Bonds:                   4
##########                       Formal_Charge:          -0.0299995
##########                     HBond_Acceptors:                   9
##########                        HBond_Donors:                   1
##########                         Heavy_Atoms:                  25
##########                          Grid_Score:          -27.600378
##########                     Grid_vdw_energy:          -25.557985
##########                      Grid_es_energy:           -2.042392
##########           Internal_energy_repulsive:           27.717186

@<TRIPOS>MOLECULE
ZINC000371438955
 47 49 1 0 0
SMALL
USER_CHARGES


@<TRIPOS>ATOM
      1 C1        -13.0442    2.7936   53.5287 C.3     1  ZINC000371438955   -0.6800
      2 S2        -12.5348    1.6628   54.8525 S.o2    1  ZINC000371438955    2.6000
      3 O3        -13.5830    1.4973   55.7976 O.2     1  ZINC000371438955   -0.9500
      4 O4        -11.8503    0.5403   54.3135 O.2     1  ZINC000371438955   -0.9500
      5 N5        -11.3665    2.4950   55.6800 N.am    1  ZINC000371438955   -0.9900
      6 C6        -10.1830    2.9088   54.9823 C.3     1  ZINC000371438955    0.1300
      7 C7         -9.1760    1.7473   55.0265 C.3     1  ZINC000371438955   -0.1700
      8 C8         -8.4937    1.6635   56.3274 C.3     1  ZINC000371438955    0.1400
      9 N9         -9.4827    1.4913   57.4178 N.am    1  ZINC000371438955   -0.6200
     10 C10        -9.6703    0.2766   57.9709 C.2     1  ZINC000371438955    0.7100
     11 O11        -9.0285   -0.6772   57.5753 O.2     1  ZINC000371438955   -0.5800
     12 N12       -10.5695    0.1193   58.9625 N.am    1  ZINC000371438955   -0.7400
     13 C13       -10.7735   -1.2010   59.5638 C.3     1  ZINC000371438955    0.2000
     14 H14       -11.6169   -1.1435   60.2518 H       1  ZINC000371438955    0.1100
     15 C15        -9.5291   -1.5745   60.3502 C.3     1  ZINC000371438955   -0.1300
     16 C16        -9.7509   -2.9394   61.0170 C.3     1  ZINC000371438955   -0.1100
     17 S17        -9.6870   -4.1972   59.7085 S.3     1  ZINC000371438955   -0.1000
     18 C18       -10.7099   -3.4989   58.4517 C.ar    1  ZINC000371438955   -0.1100
     19 C19       -11.1146   -4.3325   57.4052 C.ar    1  ZINC000371438955    0.1100
     20 F20       -10.7270   -5.6266   57.3919 F       1  ZINC000371438955   -0.1300
     21 C21       -11.9066   -3.8456   56.3861 C.ar    1  ZINC000371438955   -0.1300
     22 C22       -12.2984   -2.5190   56.4028 C.ar    1  ZINC000371438955   -0.1000
     23 C23       -11.9031   -1.6964   57.4348 C.ar    1  ZINC000371438955   -0.1000
     24 C24       -11.1076   -2.1780   58.4751 C.ar    1  ZINC000371438955   -0.0800
     25 C25       -10.2410    2.6177   57.8858 C.3     1  ZINC000371438955    0.1000
     26 C26       -11.5806    2.7951   57.1222 C.3     1  ZINC000371438955    0.0900
     27 H27       -13.4323    3.7136   53.9660 H       1  ZINC000371438955    0.1300
     28 H28       -12.1858    3.0251   52.8981 H       1  ZINC000371438955    0.1300
     29 H29       -13.8206    2.3218   52.9265 H       1  ZINC000371438955    0.1300
     30 H30       -10.4291    3.1442   53.9468 H       1  ZINC000371438955    0.0800
     31 H31        -9.7560    3.7856   55.4688 H       1  ZINC000371438955    0.0800
     32 H32        -9.7043    0.8120   54.8419 H       1  ZINC000371438955    0.0800
     33 H33        -8.4314    1.8931   54.2439 H       1  ZINC000371438955    0.0900
     34 H34        -7.8106    0.8142   56.3225 H       1  ZINC000371438955    0.0900
     35 H35        -7.9260    2.5786   56.4966 H       1  ZINC000371438955    0.0700
     36 H36       -11.0816    0.8803   59.2781 H       1  ZINC000371438955    0.4000
     37 H37        -8.6749   -1.6326   59.6756 H       1  ZINC000371438955    0.0900
     38 H38        -9.3411   -0.8210   61.1151 H       1  ZINC000371438955    0.1000
     39 H39        -8.9658   -3.1262   61.7496 H       1  ZINC000371438955    0.1200
     40 H40       -10.7261   -2.9601   61.5038 H       1  ZINC000371438955    0.1000
     41 H41       -12.2180   -4.4949   55.5814 H       1  ZINC000371438955    0.1400
     42 H42       -12.9141   -2.1280   55.6063 H       1  ZINC000371438955    0.1300
     43 H43       -12.2128   -0.6618   57.4377 H       1  ZINC000371438955    0.1400
     44 H44       -10.4545    2.4829   58.9462 H       1  ZINC000371438955    0.0800
     45 H45        -9.6444    3.5211   57.7602 H       1  ZINC000371438955    0.0900
     46 H46       -11.9318    3.8205   57.2378 H       1  ZINC000371438955    0.0800
     47 H47       -12.3237    2.1084   57.5274 H       1  ZINC000371438955    0.1000
@<TRIPOS>BOND
     1     1     2    1
     2     1    27    1
     3     1    28    1
     4     1    29    1
     5     2     3    2
     6     2     4    2
     7     2     5   am
     8     5    26    1
     9     5     6    1
    10     6     7    1
    11     6    30    1
    12     6    31    1
    13     7     8    1
    14     7    32    1
    15     7    33    1
    16     8     9    1
    17     8    34    1
    18     8    35    1
    19     9    10   am
    20     9    25    1
    21    10    11    2
    22    10    12   am
    23    12    13    1
    24    12    36    1
    25    13    14    1
    26    13    24    1
    27    13    15    1
    28    15    16    1
    29    15    37    1
    30    15    38    1
    31    16    17    1
    32    16    39    1
    33    16    40    1
    34    17    18    1
    35    18    24   ar
    36    18    19   ar
    37    19    20    1
    38    19    21   ar
    39    21    22   ar
    40    21    41    1
    41    22    23   ar
    42    22    42    1
    43    23    24   ar
    44    23    43    1
    45    25    26    1
    46    25    44    1
    47    25    45    1
    48    26    46    1
    49    26    47    1
@<TRIPOS>SUBSTRUCTURE
     1 ZINC000371438955        1 TEMP              0 ****  ****    0 ROOT


##########                                Name:    ZINC000942661662
##########                DOCK_Rotatable_Bonds:                   6
##########                         Heavy_Atoms:                  25
##########                    Molecular_Weight:             343.426
##########                DOCK_Rotatable_Bonds:                   6
##########                       Formal_Charge:           0.0399997
##########                     HBond_Acceptors:                   6
##########                        HBond_Donors:                   1
##########                         Heavy_Atoms:                  25
##########                          Grid_Score:          -27.576393
##########                     Grid_vdw_energy:          -28.686495
##########                      Grid_es_energy:            1.110101
##########           Internal_energy_repulsive:           19.740526

@<TRIPOS>MOLECULE
ZINC000942661662
 50 52 1 0 0
SMALL
USER_CHARGES


@<TRIPOS>ATOM
      1 C1        -10.3310    0.7511   56.5675 C.3     1  ZINC000942661662   -0.1700
      2 C2         -9.5355    0.2622   57.7795 C.3     1  ZINC000942661662    0.1000
      3 N3        -10.4610   -0.1227   58.8480 N.am    1  ZINC000942661662   -0.6000
      4 C4        -11.0042    0.8215   59.6415 C.2     1  ZINC000942661662    0.6000
      5 O5        -10.7262    1.9931   59.4706 O.2     1  ZINC000942661662   -0.5200
      6 C6        -11.9353    0.4343   60.7164 C.2     1  ZINC000942661662   -0.2400
      7 C7        -13.2286    0.8391   60.8726 C.2     1  ZINC000942661662    0.0700
      8 C8        -13.9745    1.7788   59.9606 C.3     1  ZINC000942661662   -0.0900
      9 O9        -13.7218    0.2606   61.9718 O.3     1  ZINC000942661662   -0.1700
     10 C10       -12.7998   -0.5193   62.5575 C.2     1  ZINC000942661662   -0.0300
     11 C11       -11.6663   -0.4737   61.8409 C.2     1  ZINC000942661662   -0.1900
     12 C12       -10.7959   -1.5341   59.0539 C.3     1  ZINC000942661662    0.1400
     13 H13       -11.5997   -1.6405   59.7823 H       1  ZINC000942661662    0.1100
     14 C14        -9.5451   -2.3456   59.4833 C.3     1  ZINC000942661662   -0.1400
     15 C15        -9.8747   -3.7723   58.9960 C.3     1  ZINC000942661662    0.1000
     16 N16       -10.8778   -3.6480   57.9283 N.am    1  ZINC000942661662   -0.6200
     17 C17       -11.4418   -4.6719   57.2573 C.2     1  ZINC000942661662    0.6100
     18 O18       -11.1284   -5.8178   57.5206 O.2     1  ZINC000942661662   -0.5200
     19 C19       -12.4330   -4.4048   56.2097 C.2     1  ZINC000942661662   -0.0600
     20 C20       -13.8032   -4.4172   56.3622 C.2     1  ZINC000942661662   -0.0700
     21 C21       -14.5604   -4.7070   57.6324 C.3     1  ZINC000942661662   -0.0900
     22 C22       -14.3580   -4.1097   55.1158 C.2     1  ZINC000942661662   -0.2100
     23 C23       -13.3396   -3.9191   54.2434 C.2     1  ZINC000942661662    0.0500
     24 C24       -13.4888   -3.5674   52.7855 C.3     1  ZINC000942661662   -0.0900
     25 N25       -12.1646   -4.0901   54.8968 N.pl3   1  ZINC000942661662   -0.5400
     26 C26       -11.1665   -2.2177   57.7141 C.3     1  ZINC000942661662    0.0900
     27 H27        -9.6425    1.0375   55.7725 H       1  ZINC000942661662    0.0700
     28 H28       -10.9821   -0.0482   56.2137 H       1  ZINC000942661662    0.0600
     29 H29       -10.9351    1.6124   56.8528 H       1  ZINC000942661662    0.0600
     30 H30        -8.9315   -0.5991   57.4942 H       1  ZINC000942661662    0.0900
     31 H31        -8.8844    1.0615   58.1334 H       1  ZINC000942661662    0.0800
     32 H32       -14.4722    1.2065   59.1777 H       1  ZINC000942661662    0.0900
     33 H33       -14.7180    2.3300   60.5363 H       1  ZINC000942661662    0.0900
     34 H34       -13.2727    2.4795   59.5082 H       1  ZINC000942661662    0.1000
     35 H35       -12.9482   -1.0955   63.4588 H       1  ZINC000942661662    0.2100
     36 H36       -10.7424   -0.9919   62.0517 H       1  ZINC000942661662    0.1600
     37 H37        -8.6508   -1.9661   58.9890 H       1  ZINC000942661662    0.1000
     38 H38        -9.4260   -2.3260   60.5666 H       1  ZINC000942661662    0.0900
     39 H39        -8.9749   -4.2478   58.6057 H       1  ZINC000942661662    0.0700
     40 H40       -10.2803   -4.3607   59.8189 H       1  ZINC000942661662    0.0700
     41 H41       -14.7255   -3.7775   58.1772 H       1  ZINC000942661662    0.0700
     42 H42       -15.5210   -5.1602   57.3875 H       1  ZINC000942661662    0.0600
     43 H43       -13.9822   -5.3930   58.2515 H       1  ZINC000942661662    0.0800
     44 H44       -15.4115   -4.0375   54.8892 H       1  ZINC000942661662    0.1400
     45 H45       -13.5072   -2.4834   52.6734 H       1  ZINC000942661662    0.0800
     46 H46       -12.6479   -3.9764   52.2253 H       1  ZINC000942661662    0.0700
     47 H47       -14.4188   -3.9881   52.4036 H       1  ZINC000942661662    0.0900
     48 H48       -11.2816   -4.0097   54.5035 H       1  ZINC000942661662    0.4100
     49 H49       -12.2239   -2.0732   57.4929 H       1  ZINC000942661662    0.0800
     50 H50       -10.5515   -1.8237   56.9051 H       1  ZINC000942661662    0.1000
@<TRIPOS>BOND
     1     1     2    1
     2     1    27    1
     3     1    28    1
     4     1    29    1
     5     2     3    1
     6     2    30    1
     7     2    31    1
     8     3     4   am
     9     3    12    1
    10     4     5    2
    11     4     6    1
    12     6    11    1
    13     6     7    2
    14     7     8    1
    15     7     9    1
    16     8    32    1
    17     8    33    1
    18     8    34    1
    19     9    10    1
    20    10    11    2
    21    10    35    1
    22    11    36    1
    23    12    13    1
    24    12    26    1
    25    12    14    1
    26    14    15    1
    27    14    37    1
    28    14    38    1
    29    15    16    1
    30    15    39    1
    31    15    40    1
    32    16    17   am
    33    16    26    1
    34    17    18    2
    35    17    19    1
    36    19    25    1
    37    19    20    2
    38    20    21    1
    39    20    22    1
    40    21    41    1
    41    21    42    1
    42    21    43    1
    43    22    23    2
    44    22    44    1
    45    23    24    1
    46    23    25    1
    47    24    45    1
    48    24    46    1
    49    24    47    1
    50    25    48    1
    51    26    49    1
    52    26    50    1
@<TRIPOS>SUBSTRUCTURE
     1 ZINC000942661662        1 TEMP              0 ****  ****    0 ROOT


##########                                Name:    ZINC000375477402
##########                DOCK_Rotatable_Bonds:                   5
##########                         Heavy_Atoms:                  26
##########                    Molecular_Weight:             378.342
##########                DOCK_Rotatable_Bonds:                   5
##########                       Formal_Charge:         -1.2666e-07
##########                     HBond_Acceptors:                   9
##########                        HBond_Donors:                   1
##########                         Heavy_Atoms:                  26
##########                          Grid_Score:          -27.443686
##########                     Grid_vdw_energy:          -26.427822
##########                      Grid_es_energy:           -1.015864
##########           Internal_energy_repulsive:           13.346717

@<TRIPOS>MOLECULE
ZINC000375477402
 45 47 1 0 0
SMALL
USER_CHARGES


@<TRIPOS>ATOM
      1 O1         -9.8016   -0.9478   57.2441 O.2     1  ZINC000375477402   -0.5600
      2 C2        -10.8963   -1.4270   57.4686 C.2     1  ZINC000375477402    0.7200
      3 N3        -11.2749   -1.6778   58.7375 N.am    1  ZINC000375477402   -0.7300
      4 C4        -10.3649   -1.3786   59.8461 C.3     1  ZINC000375477402    0.1800
      5 H5         -9.5956   -0.6846   59.5075 H       1  ZINC000375477402    0.1500
      6 C6        -11.1403   -0.7556   60.9782 C.ar    1  ZINC000375477402   -0.1300
      7 C7        -10.6378    0.3539   61.6317 C.ar    1  ZINC000375477402   -0.0800
      8 C8        -11.3478    0.9267   62.6705 C.ar    1  ZINC000375477402   -0.0900
      9 C9        -12.5616    0.3910   63.0579 C.ar    1  ZINC000375477402   -0.1100
     10 C10       -13.0675   -0.7200   62.4056 C.ar    1  ZINC000375477402    0.0800
     11 F11       -14.2539   -1.2442   62.7836 F       1  ZINC000375477402   -0.1200
     12 C12       -12.3582   -1.2909   61.3600 C.ar    1  ZINC000375477402    0.1000
     13 F13       -12.8499   -2.3754   60.7217 F       1  ZINC000375477402   -0.1100
     14 C14        -9.7074   -2.6727   60.3296 C.3     1  ZINC000375477402    0.4400
     15 F15        -8.8392   -3.1516   59.3428 F       1  ZINC000375477402   -0.1600
     16 F16        -8.9870   -2.4199   61.5019 F       1  ZINC000375477402   -0.1700
     17 F17       -10.6950   -3.6299   60.5863 F       1  ZINC000375477402   -0.1800
     18 N18       -11.7333   -1.7022   56.4488 N.am    1  ZINC000375477402   -0.6300
     19 C19       -13.0854   -2.2775   56.5773 C.3     1  ZINC000375477402    0.1000
     20 C20       -13.8316   -1.8327   55.2933 C.3     1  ZINC000375477402   -0.1200
     21 C21       -12.7031   -1.9028   54.2404 C.3     1  ZINC000375477402   -0.1100
     22 C22       -11.4526   -1.4727   55.0222 C.3     1  ZINC000375477402    0.1400
     23 C23       -12.5571   -3.3272   53.7198 C.3     1  ZINC000375477402   -0.1100
     24 C24       -11.4772   -3.3567   52.6319 C.3     1  ZINC000375477402   -0.1600
     25 C25       -11.8409   -2.3480   51.5390 C.3     1  ZINC000375477402    0.0600
     26 O26       -11.9566   -1.0441   52.1124 O.3     1  ZINC000375477402   -0.3800
     27 C27       -12.9838   -0.9320   53.1014 C.3     1  ZINC000375477402    0.0800
     28 H28       -12.1498   -2.0563   58.9168 H       1  ZINC000375477402    0.4000
     29 H29        -9.6893    0.7737   61.3306 H       1  ZINC000375477402    0.1400
     30 H30       -10.9535    1.7934   63.1802 H       1  ZINC000375477402    0.1500
     31 H31       -13.1151    0.8391   63.8698 H       1  ZINC000375477402    0.1500
     32 H32       -13.0315   -3.3650   56.6270 H       1  ZINC000375477402    0.0700
     33 H33       -13.5836   -1.8809   57.4619 H       1  ZINC000375477402    0.0700
     34 H34       -14.6371   -2.5254   55.0496 H       1  ZINC000375477402    0.0900
     35 H35       -14.2100   -0.8155   55.3936 H       1  ZINC000375477402    0.0800
     36 H36       -11.2478   -0.4171   54.8434 H       1  ZINC000375477402    0.0800
     37 H37       -10.5979   -2.0761   54.7163 H       1  ZINC000375477402    0.0700
     38 H38       -12.2678   -3.9864   54.5382 H       1  ZINC000375477402    0.0700
     39 H39       -13.5061   -3.6607   53.3001 H       1  ZINC000375477402    0.0700
     40 H40       -10.5138   -3.0910   53.0672 H       1  ZINC000375477402    0.0700
     41 H41       -11.4208   -4.3564   52.2012 H       1  ZINC000375477402    0.0800
     42 H42       -11.0618   -2.3418   50.7766 H       1  ZINC000375477402    0.1000
     43 H43       -12.7907   -2.6308   51.0852 H       1  ZINC000375477402    0.0500
     44 H44       -13.9481   -1.1690   52.6519 H       1  ZINC000375477402    0.0600
     45 H45       -13.0049    0.0864   53.4893 H       1  ZINC000375477402    0.1000
@<TRIPOS>BOND
     1     1     2    2
     2     2     3   am
     3     2    18   am
     4     3     4    1
     5     3    28    1
     6     4     5    1
     7     4     6    1
     8     4    14    1
     9     6    12   ar
    10     6     7   ar
    11     7     8   ar
    12     7    29    1
    13     8     9   ar
    14     8    30    1
    15     9    10   ar
    16     9    31    1
    17    10    11    1
    18    10    12   ar
    19    12    13    1
    20    14    15    1
    21    14    16    1
    22    14    17    1
    23    18    22    1
    24    18    19    1
    25    19    20    1
    26    19    32    1
    27    19    33    1
    28    20    21    1
    29    20    34    1
    30    20    35    1
    31    21    27    1
    32    21    22    1
    33    21    23    1
    34    22    36    1
    35    22    37    1
    36    23    24    1
    37    23    38    1
    38    23    39    1
    39    24    25    1
    40    24    40    1
    41    24    41    1
    42    25    26    1
    43    25    42    1
    44    25    43    1
    45    26    27    1
    46    27    44    1
    47    27    45    1
@<TRIPOS>SUBSTRUCTURE
     1 ZINC000375477402        1 TEMP              0 ****  ****    0 ROOT


##########                                Name:    ZINC000550782577
##########                DOCK_Rotatable_Bonds:                   5
##########                         Heavy_Atoms:                  25
##########                    Molecular_Weight:              338.45
##########                DOCK_Rotatable_Bonds:                   5
##########                       Formal_Charge:         -0.00999954
##########                     HBond_Acceptors:                   4
##########                        HBond_Donors:                   0
##########                         Heavy_Atoms:                  25
##########                          Grid_Score:          -27.413549
##########                     Grid_vdw_energy:          -27.154238
##########                      Grid_es_energy:           -0.259311
##########           Internal_energy_repulsive:           40.421257

@<TRIPOS>MOLECULE
ZINC000550782577
 51 53 1 0 0
SMALL
USER_CHARGES


@<TRIPOS>ATOM
      1 C1        -13.0046   -3.2765   57.3553 C.3     1  ZINC000550782577    0.0700
      2 N2        -11.7804   -2.5452   57.6911 N.am    1  ZINC000550782577   -0.5900
      3 C3        -11.1106   -1.8761   56.7319 C.2     1  ZINC000550782577    0.5800
      4 O4        -10.0949   -1.2694   57.0104 O.2     1  ZINC000550782577   -0.5400
      5 C5        -11.6117   -1.8800   55.3400 C.ar    1  ZINC000550782577    0.0300
      6 C6        -11.5875   -3.0623   54.6014 C.ar    1  ZINC000550782577   -0.0600
      7 C7        -12.0588   -3.0537   53.3006 C.ar    1  ZINC000550782577   -0.1200
      8 C8        -12.5413   -1.8572   52.7781 C.ar    1  ZINC000550782577    0.1100
      9 O9        -13.0134   -1.8041   51.5068 O.3     1  ZINC000550782577   -0.3000
     10 C10       -14.3805   -1.4242   51.3376 C.3     1  ZINC000550782577    0.1000
     11 C11       -15.0567   -1.3299   52.7068 C.3     1  ZINC000550782577   -0.2000
     12 C12       -14.4493   -0.0642   50.6401 C.3     1  ZINC000550782577   -0.1400
     13 C13       -15.0992   -2.4717   50.4849 C.3     1  ZINC000550782577   -0.2000
     14 C14       -12.5345   -0.7151   53.5753 C.ar    1  ZINC000550782577   -0.0100
     15 N15       -12.0849   -0.7584   54.8087 N.ar    1  ZINC000550782577   -0.4100
     16 C16       -11.2841   -2.5413   59.0695 C.3     1  ZINC000550782577    0.1400
     17 H17       -11.8718   -3.2331   59.6729 H       1  ZINC000550782577    0.1100
     18 C18        -9.8102   -2.9630   59.0887 C.3     1  ZINC000550782577   -0.1300
     19 C19        -9.3904   -3.1816   60.5409 C.3     1  ZINC000550782577   -0.0800
     20 C20        -9.7596   -1.9892   61.3839 C.ar    1  ZINC000550782577   -0.0800
     21 C21        -9.1316   -1.8478   62.6143 C.ar    1  ZINC000550782577   -0.1200
     22 C22        -9.4304   -0.7801   63.4355 C.ar    1  ZINC000550782577   -0.1200
     23 C23       -10.3631    0.1566   63.0313 C.ar    1  ZINC000550782577   -0.1200
     24 C24       -10.9865    0.0192   61.8081 C.ar    1  ZINC000550782577   -0.1200
     25 C25       -10.6843   -1.0527   60.9785 C.ar    1  ZINC000550782577   -0.0700
     26 C26       -11.3912   -1.1329   59.6507 C.3     1  ZINC000550782577   -0.0900
     27 H27       -12.7446   -4.2603   56.9647 H       1  ZINC000550782577    0.0600
     28 H28       -13.6165   -3.3908   58.2501 H       1  ZINC000550782577    0.0600
     29 H29       -13.5637   -2.7224   56.6013 H       1  ZINC000550782577    0.1100
     30 H30       -11.2055   -3.9729   55.0389 H       1  ZINC000550782577    0.1600
     31 H31       -12.0522   -3.9542   52.7044 H       1  ZINC000550782577    0.1500
     32 H32       -14.8512   -0.3543   53.1471 H       1  ZINC000550782577    0.0700
     33 H33       -16.1330   -1.4564   52.5899 H       1  ZINC000550782577    0.0800
     34 H34       -14.6677   -2.1120   53.3589 H       1  ZINC000550782577    0.0800
     35 H35       -13.9676   -0.1314   49.6646 H       1  ZINC000550782577    0.0700
     36 H36       -15.4922    0.2256   50.5111 H       1  ZINC000550782577    0.0800
     37 H37       -13.9373    0.6821   51.2476 H       1  ZINC000550782577    0.0700
     38 H38       -15.0542   -3.4396   50.9841 H       1  ZINC000550782577    0.0800
     39 H39       -16.1409   -2.1795   50.3520 H       1  ZINC000550782577    0.0800
     40 H40       -14.6145   -2.5422   49.5111 H       1  ZINC000550782577    0.0700
     41 H41       -12.9074    0.2164   53.1758 H       1  ZINC000550782577    0.1900
     42 H42        -9.6861   -3.8891   58.5274 H       1  ZINC000550782577    0.0700
     43 H43        -9.1981   -2.1785   58.6437 H       1  ZINC000550782577    0.0700
     44 H44        -9.8927   -4.0669   60.9308 H       1  ZINC000550782577    0.0800
     45 H45        -8.3117   -3.3325   60.5843 H       1  ZINC000550782577    0.0800
     46 H46        -8.4034   -2.5798   62.9312 H       1  ZINC000550782577    0.1200
     47 H47        -8.9377   -0.6767   64.3909 H       1  ZINC000550782577    0.1200
     48 H48       -10.6034    0.9930   63.6709 H       1  ZINC000550782577    0.1200
     49 H49       -11.7153    0.7513   61.4932 H       1  ZINC000550782577    0.1200
     50 H50       -10.9376   -0.4235   58.9585 H       1  ZINC000550782577    0.0800
     51 H51       -12.4424   -0.8789   59.7872 H       1  ZINC000550782577    0.0800
@<TRIPOS>BOND
     1     1     2    1
     2     1    27    1
     3     1    28    1
     4     1    29    1
     5     2     3   am
     6     2    16    1
     7     3     4    2
     8     3     5    1
     9     5    15   ar
    10     5     6   ar
    11     6     7   ar
    12     6    30    1
    13     7     8   ar
    14     7    31    1
    15     8     9    1
    16     8    14   ar
    17     9    10    1
    18    10    11    1
    19    10    12    1
    20    10    13    1
    21    11    32    1
    22    11    33    1
    23    11    34    1
    24    12    35    1
    25    12    36    1
    26    12    37    1
    27    13    38    1
    28    13    39    1
    29    13    40    1
    30    14    15   ar
    31    14    41    1
    32    16    17    1
    33    16    26    1
    34    16    18    1
    35    18    19    1
    36    18    42    1
    37    18    43    1
    38    19    20    1
    39    19    44    1
    40    19    45    1
    41    20    25   ar
    42    20    21   ar
    43    21    22   ar
    44    21    46    1
    45    22    23   ar
    46    22    47    1
    47    23    24   ar
    48    23    48    1
    49    24    25   ar
    50    24    49    1
    51    25    26    1
    52    26    50    1
    53    26    51    1
@<TRIPOS>SUBSTRUCTURE
     1 ZINC000550782577        1 TEMP              0 ****  ****    0 ROOT


##########                                Name:    ZINC000879023512
##########                DOCK_Rotatable_Bonds:                   4
##########                         Heavy_Atoms:                  20
##########                    Molecular_Weight:             346.156
##########                DOCK_Rotatable_Bonds:                   4
##########                       Formal_Charge:        -5.96046e-08
##########                     HBond_Acceptors:                   7
##########                        HBond_Donors:                   1
##########                         Heavy_Atoms:                  20
##########                          Grid_Score:          -27.251854
##########                     Grid_vdw_energy:          -25.378889
##########                      Grid_es_energy:           -1.872965
##########           Internal_energy_repulsive:            3.133415

@<TRIPOS>MOLECULE
ZINC000879023512
 33 34 1 0 0
SMALL
USER_CHARGES


@<TRIPOS>ATOM
      1 O1         -9.7714   -1.9601   61.7968 O.2     1  ZINC000879023512   -0.5600
      2 C2        -10.4294   -0.9426   61.8976 C.2     1  ZINC000879023512    0.7200
      3 N3        -11.4098   -0.6834   61.0097 N.am    1  ZINC000879023512   -0.6800
      4 C4        -11.6666   -1.5829   59.9683 C.ar    1  ZINC000879023512    0.1800
      5 C5        -10.7043   -1.8118   58.9939 C.ar    1  ZINC000879023512   -0.0900
      6 C6        -10.9602   -2.6999   57.9673 C.ar    1  ZINC000879023512   -0.0700
      7 C7        -12.1742   -3.3606   57.9092 C.ar    1  ZINC000879023512   -0.0700
      8 Br8       -12.5211   -4.5756   56.5024 Br      1  ZINC000879023512    0.0200
      9 C9        -13.1351   -3.1343   58.8791 C.ar    1  ZINC000879023512    0.0000
     10 N10       -14.4329   -3.8431   58.8137 N.pl3   1  ZINC000879023512    0.0200
     11 O11       -15.2790   -3.6443   59.6670 O.2     1  ZINC000879023512   -0.1500
     12 O12       -14.6548   -4.6250   57.9066 O.2     1  ZINC000879023512   -0.1300
     13 C13       -12.8821   -2.2522   59.9110 C.ar    1  ZINC000879023512   -0.0500
     14 N14       -10.1821   -0.0766   62.9002 N.am    1  ZINC000879023512   -0.6300
     15 C15        -9.1437   -0.2314   63.9295 C.3     1  ZINC000879023512    0.0900
     16 C16        -9.2506    0.9837   64.8747 C.3     1  ZINC000879023512   -0.1200
     17 C17       -10.7087    1.4669   64.6559 C.3     1  ZINC000879023512   -0.1400
     18 H18       -11.4074    0.8856   65.2578 H       1  ZINC000879023512    0.1000
     19 C19       -10.8423    2.9611   64.9562 C.3     1  ZINC000879023512    0.0700
     20 F20       -12.1663    3.3622   64.7480 F       1  ZINC000879023512   -0.2100
     21 C21       -10.9035    1.1859   63.1428 C.3     1  ZINC000879023512    0.1300
     22 H22       -11.9373    0.1263   61.0924 H       1  ZINC000879023512    0.4200
     23 H23        -9.7566   -1.2956   59.0384 H       1  ZINC000879023512    0.1600
     24 H24       -10.2120   -2.8782   57.2092 H       1  ZINC000879023512    0.1600
     25 H25       -13.6321   -2.0763   60.6678 H       1  ZINC000879023512    0.1800
     26 H26        -9.3106   -1.1520   64.4889 H       1  ZINC000879023512    0.0700
     27 H27        -8.1590   -0.2524   63.4626 H       1  ZINC000879023512    0.0700
     28 H28        -9.0958    0.6815   65.9105 H       1  ZINC000879023512    0.0900
     29 H29        -8.5404    1.7591   64.5878 H       1  ZINC000879023512    0.0900
     30 H30       -10.5645    3.1495   65.9932 H       1  ZINC000879023512    0.0800
     31 H31       -10.1837    3.5248   64.2955 H       1  ZINC000879023512    0.0800
     32 H32       -10.4758    1.9936   62.5489 H       1  ZINC000879023512    0.0800
     33 H33       -11.9621    1.0642   62.9128 H       1  ZINC000879023512    0.0900
@<TRIPOS>BOND
     1     1     2    2
     2     2     3   am
     3     2    14   am
     4     3     4    1
     5     3    22    1
     6     4    13   ar
     7     4     5   ar
     8     5     6   ar
     9     5    23    1
    10     6     7   ar
    11     6    24    1
    12     7     8    1
    13     7     9   ar
    14     9    10    1
    15     9    13   ar
    16    10    11    2
    17    10    12    2
    18    13    25    1
    19    14    21    1
    20    14    15    1
    21    15    16    1
    22    15    26    1
    23    15    27    1
    24    16    17    1
    25    16    28    1
    26    16    29    1
    27    17    18    1
    28    17    19    1
    29    17    21    1
    30    19    20    1
    31    19    30    1
    32    19    31    1
    33    21    32    1
    34    21    33    1
@<TRIPOS>SUBSTRUCTURE
     1 ZINC000879023512        1 TEMP              0 ****  ****    0 ROOT


##########                                Name:    ZINC000426567005
##########                DOCK_Rotatable_Bonds:                   9
##########                         Heavy_Atoms:                  31
##########                    Molecular_Weight:             417.467
##########                DOCK_Rotatable_Bonds:                   9
##########                       Formal_Charge:        -2.23517e-07
##########                     HBond_Acceptors:                   8
##########                        HBond_Donors:                   4
##########                         Heavy_Atoms:                  31
##########                          Grid_Score:          -27.238146
##########                     Grid_vdw_energy:          -26.322462
##########                      Grid_es_energy:           -0.915684
##########           Internal_energy_repulsive:           13.415434

@<TRIPOS>MOLECULE
ZINC000426567005
 54 57 1 0 0
SMALL
USER_CHARGES


@<TRIPOS>ATOM
      1 O1         -6.7473    3.9443   58.0234 O.2     1  ZINC000426567005   -0.4900
      2 C2         -6.7482    2.9028   57.3999 C.2     1  ZINC000426567005    0.5200
      3 N3         -5.6222    2.1669   57.3154 N.am    1  ZINC000426567005   -0.6000
      4 C4         -4.4505    2.6065   57.9416 C.2     1  ZINC000426567005    0.3000
      5 N5         -4.3139    3.7151   58.6313 N.2     1  ZINC000426567005   -0.3100
      6 N6         -2.9919    3.7843   59.0890 N.pl3   1  ZINC000426567005   -0.4600
      7 C7         -2.3402    2.6852   58.6537 C.2     1  ZINC000426567005    0.1100
      8 C8         -0.8945    2.3494   58.9150 C.3     1  ZINC000426567005   -0.0300
      9 C9         -0.0877    3.6338   59.2286 C.3     1  ZINC000426567005   -0.1200
     10 C10         1.1196    3.0911   60.0329 C.3     1  ZINC000426567005   -0.1300
     11 C11         0.5197    1.9684   60.9045 C.3     1  ZINC000426567005   -0.1300
     12 C12        -0.7609    1.4968   60.1937 C.3     1  ZINC000426567005   -0.1200
     13 C13        -3.2164    1.9358   57.9473 C.2     1  ZINC000426567005   -0.2600
     14 C14        -7.9979    2.4339   56.7320 C.2     1  ZINC000426567005    0.5200
     15 O15        -9.0527    2.9897   56.9593 O.2     1  ZINC000426567005   -0.4900
     16 N16        -7.9551    1.3932   55.8766 N.am    1  ZINC000426567005   -0.6400
     17 C17        -9.1213    0.9557   55.2534 C.ar    1  ZINC000426567005    0.1700
     18 C18        -9.4752    1.4639   54.0070 C.ar    1  ZINC000426567005   -0.1300
     19 C19       -10.6271    1.0335   53.3883 C.ar    1  ZINC000426567005   -0.0300
     20 C20       -11.4414    0.0847   54.0130 C.ar    1  ZINC000426567005   -0.1500
     21 C21       -12.6768   -0.3794   53.3524 C.2     1  ZINC000426567005    0.5600
     22 O22       -13.6967    0.2766   53.4410 O.2     1  ZINC000426567005   -0.5100
     23 N23       -12.6744   -1.5302   52.6510 N.am    1  ZINC000426567005   -0.6700
     24 C24       -13.8451   -1.9700   52.0250 C.ar    1  ZINC000426567005    0.1400
     25 C25       -14.0409   -1.7335   50.6705 C.ar    1  ZINC000426567005   -0.1500
     26 C26       -15.1980   -2.1695   50.0551 C.ar    1  ZINC000426567005   -0.1000
     27 C27       -16.1609   -2.8408   50.7861 C.ar    1  ZINC000426567005   -0.1300
     28 C28       -15.9692   -3.0775   52.1350 C.ar    1  ZINC000426567005   -0.1000
     29 C29       -14.8118   -2.6492   52.7552 C.ar    1  ZINC000426567005   -0.1200
     30 C30       -11.0829   -0.4241   55.2644 C.ar    1  ZINC000426567005   -0.0600
     31 C31        -9.9272    0.0068   55.8757 C.ar    1  ZINC000426567005   -0.1400
     32 H32        -5.6239    1.3325   56.8207 H       1  ZINC000426567005    0.4300
     33 H33        -2.6111    4.4975   59.6251 H       1  ZINC000426567005    0.4400
     34 H34        -0.4651    1.8258   58.0608 H       1  ZINC000426567005    0.1100
     35 H35         0.2455    4.1149   58.3091 H       1  ZINC000426567005    0.0800
     36 H36        -0.6773    4.3220   59.8343 H       1  ZINC000426567005    0.0700
     37 H37         1.8764    2.6883   59.3598 H       1  ZINC000426567005    0.0700
     38 H38         1.5439    3.8754   60.6598 H       1  ZINC000426567005    0.0700
     39 H39         1.2262    1.1426   60.9878 H       1  ZINC000426567005    0.0700
     40 H40         0.2768    2.3539   61.8947 H       1  ZINC000426567005    0.0700
     41 H41        -1.6253    1.6535   60.8389 H       1  ZINC000426567005    0.0600
     42 H42        -0.6759    0.4421   59.9320 H       1  ZINC000426567005    0.0700
     43 H43        -3.0032    0.9925   57.4667 H       1  ZINC000426567005    0.1700
     44 H44        -7.1122    0.9489   55.6951 H       1  ZINC000426567005    0.4300
     45 H45        -8.8456    2.1970   53.5248 H       1  ZINC000426567005    0.1500
     46 H46       -10.9017    1.4288   52.4216 H       1  ZINC000426567005    0.1400
     47 H47       -11.8608   -2.0536   52.5805 H       1  ZINC000426567005    0.4100
     48 H48       -13.2894   -1.2089   50.0991 H       1  ZINC000426567005    0.1300
     49 H49       -15.3510   -1.9856   49.0020 H       1  ZINC000426567005    0.1300
     50 H50       -17.0648   -3.1808   50.3026 H       1  ZINC000426567005    0.1200
     51 H51       -16.7234   -3.6016   52.7033 H       1  ZINC000426567005    0.1300
     52 H52       -14.6625   -2.8346   53.8086 H       1  ZINC000426567005    0.1300
     53 H53       -11.7102   -1.1571   55.7499 H       1  ZINC000426567005    0.1300
     54 H54        -9.6496   -0.3860   56.8427 H       1  ZINC000426567005    0.1400
@<TRIPOS>BOND
     1     1     2    2
     2     2     3   am
     3     2    14    1
     4     3     4    1
     5     3    32    1
     6     4    13    1
     7     4     5    2
     8     5     6    1
     9     6     7    1
    10     6    33    1
    11     7     8    1
    12     7    13    2
    13     8    12    1
    14     8     9    1
    15     8    34    1
    16     9    10    1
    17     9    35    1
    18     9    36    1
    19    10    11    1
    20    10    37    1
    21    10    38    1
    22    11    12    1
    23    11    39    1
    24    11    40    1
    25    12    41    1
    26    12    42    1
    27    13    43    1
    28    14    15    2
    29    14    16   am
    30    16    17    1
    31    16    44    1
    32    17    31   ar
    33    17    18   ar
    34    18    19   ar
    35    18    45    1
    36    19    20   ar
    37    19    46    1
    38    20    21    1
    39    20    30   ar
    40    21    22    2
    41    21    23   am
    42    23    24    1
    43    23    47    1
    44    24    29   ar
    45    24    25   ar
    46    25    26   ar
    47    25    48    1
    48    26    27   ar
    49    26    49    1
    50    27    28   ar
    51    27    50    1
    52    28    29   ar
    53    28    51    1
    54    29    52    1
    55    30    31   ar
    56    30    53    1
    57    31    54    1
@<TRIPOS>SUBSTRUCTURE
     1 ZINC000426567005        1 TEMP              0 ****  ****    0 ROOT


##########                                Name:    ZINC000176150038
##########                DOCK_Rotatable_Bonds:                   4
##########                         Heavy_Atoms:                  23
##########                    Molecular_Weight:             333.712
##########                DOCK_Rotatable_Bonds:                   4
##########                       Formal_Charge:        -2.23517e-07
##########                     HBond_Acceptors:                  10
##########                        HBond_Donors:                   1
##########                         Heavy_Atoms:                  23
##########                          Grid_Score:          -27.220560
##########                     Grid_vdw_energy:          -26.141041
##########                      Grid_es_energy:           -1.079519
##########           Internal_energy_repulsive:            8.155329

@<TRIPOS>MOLECULE
ZINC000176150038
 32 34 1 0 0
SMALL
USER_CHARGES


@<TRIPOS>ATOM
      1 C1         -9.2973   -3.8002   60.0629 C.3     1  ZINC000176150038   -0.0900
      2 C2        -10.2335   -3.9388   58.8901 C.2     1  ZINC000176150038    0.2600
      3 N3        -10.5802   -5.0542   58.3027 N.2     1  ZINC000176150038   -0.3300
      4 N4        -11.3931   -4.8229   57.3357 N.2     1  ZINC000176150038   -0.0300
      5 N5        -11.6206   -3.5574   57.2382 N.2     1  ZINC000176150038   -0.0700
      6 N6        -10.8745   -2.9345   58.2541 N.pl3   1  ZINC000176150038   -0.3300
      7 C7        -10.8045   -1.5627   58.5408 C.ar    1  ZINC000176150038    0.1400
      8 C8        -10.2643   -0.6857   57.6103 C.ar    1  ZINC000176150038   -0.1000
      9 C9        -10.1949    0.6659   57.8907 C.ar    1  ZINC000176150038   -0.1100
     10 C10       -10.6633    1.1489   59.0988 C.ar    1  ZINC000176150038    0.1000
     11 F11       -10.5947    2.4706   59.3701 F       1  ZINC000176150038   -0.1200
     12 C12       -11.2058    0.2739   60.0350 C.ar    1  ZINC000176150038    0.1300
     13 N13       -11.6801    0.7618   61.2578 N.am    1  ZINC000176150038   -0.6500
     14 C14       -11.1681    0.2950   62.4137 C.2     1  ZINC000176150038    0.5700
     15 O15       -10.2946   -0.5494   62.3942 O.2     1  ZINC000176150038   -0.4800
     16 C16       -11.6707    0.8122   63.7099 C.ar    1  ZINC000176150038    0.1400
     17 N17       -12.9738    1.0051   63.9022 N.ar    1  ZINC000176150038   -0.4800
     18 C18       -13.4236    1.4631   65.0504 C.ar    1  ZINC000176150038    0.3000
     19 N19       -12.6155    1.7494   66.0527 N.ar    1  ZINC000176150038   -0.4800
     20 C20       -11.3085    1.5859   65.9431 C.ar    1  ZINC000176150038    0.1700
     21 C21       -10.7854    1.0996   64.7515 C.ar    1  ZINC000176150038   -0.1000
     22 Cl22       -9.0760    0.8669   64.5579 Cl      1  ZINC000176150038    0.0100
     23 C23       -11.2806   -1.0819   59.7522 C.ar    1  ZINC000176150038   -0.0800
     24 H24        -9.8656   -3.8651   60.9909 H       1  ZINC000176150038    0.1100
     25 H25        -8.5572   -4.5999   60.0335 H       1  ZINC000176150038    0.1100
     26 H26        -8.7924   -2.8356   60.0127 H       1  ZINC000176150038    0.0900
     27 H27        -9.8972   -1.0601   56.6661 H       1  ZINC000176150038    0.1500
     28 H28        -9.7737    1.3461   57.1651 H       1  ZINC000176150038    0.1600
     29 H29       -12.3773    1.4360   61.2733 H       1  ZINC000176150038    0.4300
     30 H30       -14.4862    1.6095   65.1759 H       1  ZINC000176150038    0.2200
     31 H31       -10.6561    1.8236   66.7704 H       1  ZINC000176150038    0.1900
     32 H32       -11.7012   -1.7633   60.4769 H       1  ZINC000176150038    0.1700
@<TRIPOS>BOND
     1     1     2    1
     2     1    24    1
     3     1    25    1
     4     1    26    1
     5     2     6    1
     6     2     3    2
     7     3     4    1
     8     4     5    2
     9     5     6    1
    10     6     7    1
    11     7    23   ar
    12     7     8   ar
    13     8     9   ar
    14     8    27    1
    15     9    10   ar
    16     9    28    1
    17    10    11    1
    18    10    12   ar
    19    12    13    1
    20    12    23   ar
    21    13    14   am
    22    13    29    1
    23    14    15    2
    24    14    16    1
    25    16    21   ar
    26    16    17   ar
    27    17    18   ar
    28    18    19   ar
    29    18    30    1
    30    19    20   ar
    31    20    21   ar
    32    20    31    1
    33    21    22    1
    34    23    32    1
@<TRIPOS>SUBSTRUCTURE
     1 ZINC000176150038        1 TEMP              0 ****  ****    0 ROOT


##########                                Name:    ZINC000482962466
##########                DOCK_Rotatable_Bonds:                   2
##########                         Heavy_Atoms:                  25
##########                    Molecular_Weight:             404.303
##########                DOCK_Rotatable_Bonds:                   2
##########                       Formal_Charge:           0.0200002
##########                     HBond_Acceptors:                   4
##########                        HBond_Donors:                   0
##########                         Heavy_Atoms:                  25
##########                          Grid_Score:          -27.140402
##########                     Grid_vdw_energy:          -27.103445
##########                      Grid_es_energy:           -0.036957
##########           Internal_energy_repulsive:           10.397866

@<TRIPOS>MOLECULE
ZINC000482962466
 47 50 1 0 0
SMALL
USER_CHARGES


@<TRIPOS>ATOM
      1 C1        -11.1780   -1.2430   57.8309 C.3     1  ZINC000482962466   -0.1400
      2 C2        -11.7561   -1.7652   56.5140 C.3     1  ZINC000482962466    0.0700
      3 H3        -11.0742   -2.4978   56.0823 H       1  ZINC000482962466    0.0700
      4 C4        -11.9399   -0.5985   55.5370 C.3     1  ZINC000482962466    0.0800
      5 N5        -12.6656   -1.0911   54.3556 N.am    1  ZINC000482962466   -0.6100
      6 C6        -12.2049   -0.8573   53.1107 C.2     1  ZINC000482962466    0.5600
      7 O7        -12.8190   -1.2729   52.1474 O.2     1  ZINC000482962466   -0.5200
      8 C8        -10.9534   -0.0961   52.9169 C.ar    1  ZINC000482962466   -0.1100
      9 C9        -10.8342    1.1985   53.4528 C.ar    1  ZINC000482962466   -0.0700
     10 C10        -9.6947    1.9177   53.2882 C.ar    1  ZINC000482962466   -0.1000
     11 C11        -8.6135    1.3698   52.5740 C.ar    1  ZINC000482962466   -0.0400
     12 C12        -7.4246    2.0949   52.3909 C.ar    1  ZINC000482962466   -0.0700
     13 C13        -6.3943    1.5379   51.6950 C.ar    1  ZINC000482962466   -0.0800
     14 Br14       -4.7962    2.5191   51.4525 Br      1  ZINC000482962466   -0.0400
     15 C15        -6.5005    0.2547   51.1589 C.ar    1  ZINC000482962466   -0.1000
     16 C16        -7.6367   -0.4773   51.3157 C.ar    1  ZINC000482962466   -0.0900
     17 C17        -8.7214    0.0647   52.0290 C.ar    1  ZINC000482962466   -0.0500
     18 C18        -9.9045   -0.6654   52.2136 C.ar    1  ZINC000482962466   -0.0700
     19 C19       -13.9097   -1.8465   54.5737 C.3     1  ZINC000482962466    0.0700
     20 C20       -13.6312   -2.9501   55.5989 C.3     1  ZINC000482962466    0.0800
     21 C21       -14.9470   -3.6275   55.9899 C.3     1  ZINC000482962466   -0.1100
     22 C22       -14.6482   -4.7806   56.9532 C.3     1  ZINC000482962466   -0.1500
     23 C23       -13.6679   -5.7500   56.2874 C.3     1  ZINC000482962466    0.0600
     24 O24       -12.4779   -5.0480   55.9229 O.3     1  ZINC000482962466   -0.3700
     25 C25       -12.6891   -3.9889   54.9869 C.3     1  ZINC000482962466    0.0400
     26 O26       -13.0239   -2.3792   56.7592 O.3     1  ZINC000482962466   -0.3500
     27 H27       -11.0494   -2.0729   58.5257 H       1  ZINC000482962466    0.0700
     28 H28       -10.2124   -0.7735   57.6430 H       1  ZINC000482962466    0.0800
     29 H29       -11.8603   -0.5105   58.2621 H       1  ZINC000482962466    0.0700
     30 H30       -12.5141    0.1945   56.0161 H       1  ZINC000482962466    0.0800
     31 H31       -10.9649   -0.2152   55.2354 H       1  ZINC000482962466    0.1000
     32 H32       -11.6599    1.6263   54.0020 H       1  ZINC000482962466    0.1400
     33 H33        -9.6183    2.9110   53.7053 H       1  ZINC000482962466    0.1400
     34 H34        -7.3276    3.0898   52.7997 H       1  ZINC000482962466    0.1400
     35 H35        -5.6690   -0.1639   50.6113 H       1  ZINC000482962466    0.1400
     36 H36        -7.7053   -1.4694   50.8948 H       1  ZINC000482962466    0.1400
     37 H37        -9.9985   -1.6616   51.8071 H       1  ZINC000482962466    0.1400
     38 H38       -14.6829   -1.1787   54.9539 H       1  ZINC000482962466    0.0900
     39 H39       -14.2381   -2.2921   53.6346 H       1  ZINC000482962466    0.1000
     40 H40       -15.5987   -2.9034   56.4788 H       1  ZINC000482962466    0.0800
     41 H41       -15.4365   -4.0159   55.0968 H       1  ZINC000482962466    0.0800
     42 H42       -14.2055   -4.3859   57.8677 H       1  ZINC000482962466    0.0800
     43 H43       -15.5734   -5.3050   57.1920 H       1  ZINC000482962466    0.0800
     44 H44       -13.4188   -6.5504   56.9841 H       1  ZINC000482962466    0.1000
     45 H45       -14.1270   -6.1750   55.3949 H       1  ZINC000482962466    0.0500
     46 H46       -13.1338   -4.3913   54.0768 H       1  ZINC000482962466    0.0600
     47 H47       -11.7351   -3.5187   54.7485 H       1  ZINC000482962466    0.1000
@<TRIPOS>BOND
     1     1     2    1
     2     1    27    1
     3     1    28    1
     4     1    29    1
     5     2     3    1
     6     2    26    1
     7     2     4    1
     8     4     5    1
     9     4    30    1
    10     4    31    1
    11     5     6   am
    12     5    19    1
    13     6     7    2
    14     6     8    1
    15     8    18   ar
    16     8     9   ar
    17     9    10   ar
    18     9    32    1
    19    10    11   ar
    20    10    33    1
    21    11    17   ar
    22    11    12   ar
    23    12    13   ar
    24    12    34    1
    25    13    14    1
    26    13    15   ar
    27    15    16   ar
    28    15    35    1
    29    16    17   ar
    30    16    36    1
    31    17    18   ar
    32    18    37    1
    33    19    20    1
    34    19    38    1
    35    19    39    1
    36    20    25    1
    37    20    21    1
    38    20    26    1
    39    21    22    1
    40    21    40    1
    41    21    41    1
    42    22    23    1
    43    22    42    1
    44    22    43    1
    45    23    24    1
    46    23    44    1
    47    23    45    1
    48    24    25    1
    49    25    46    1
    50    25    47    1
@<TRIPOS>SUBSTRUCTURE
     1 ZINC000482962466        1 TEMP              0 ****  ****    0 ROOT


##########                                Name:    ZINC001018118384
##########                DOCK_Rotatable_Bonds:                   5
##########                         Heavy_Atoms:                  25
##########                    Molecular_Weight:             347.374
##########                DOCK_Rotatable_Bonds:                   5
##########                       Formal_Charge:           0.0299997
##########                     HBond_Acceptors:                   9
##########                        HBond_Donors:                   2
##########                         Heavy_Atoms:                  25
##########                          Grid_Score:          -27.058270
##########                     Grid_vdw_energy:          -24.986679
##########                      Grid_es_energy:           -2.071590
##########           Internal_energy_repulsive:           97.230423

@<TRIPOS>MOLECULE
ZINC001018118384
 46 48 1 0 0
SMALL
USER_CHARGES


@<TRIPOS>ATOM
      1 C1         -7.2765    0.5978   51.5900 C.3     1  ZINC001018118384   -0.0700
      2 C2         -8.5151    0.4154   52.4290 C.2     1  ZINC001018118384    0.2200
      3 N3         -9.7183    0.2272   51.9694 N.2     1  ZINC001018118384   -0.4600
      4 C4        -10.5740    0.1052   53.0163 C.2     1  ZINC001018118384   -0.0700
      5 C5        -12.0277   -0.1185   52.9314 C.2     1  ZINC001018118384    0.6100
      6 O6        -12.7869    0.8302   52.8769 O.2     1  ZINC001018118384   -0.5400
      7 N7        -12.5163   -1.3744   52.9142 N.am    1  ZINC001018118384   -0.5900
      8 C8        -11.6122   -2.5305   52.9855 C.3     1  ZINC001018118384    0.0700
      9 C9        -12.0600   -3.4363   54.1369 C.3     1  ZINC001018118384    0.1300
     10 H10       -11.4574   -4.3446   54.1406 H       1  ZINC001018118384    0.1100
     11 N11       -11.8885   -2.7306   55.4092 N.am    1  ZINC001018118384   -0.7000
     12 C12       -11.2509   -3.3322   56.4329 C.2     1  ZINC001018118384    0.6000
     13 O13       -10.8196   -4.4604   56.3011 O.2     1  ZINC001018118384   -0.4900
     14 C14       -11.0759   -2.6177   57.7195 C.2     1  ZINC001018118384    0.0300
     15 C15       -11.5897   -1.3972   58.0432 C.2     1  ZINC001018118384   -0.2300
     16 C16       -11.1342   -1.1732   59.3729 C.2     1  ZINC001018118384    0.4800
     17 O17       -11.3543   -0.1985   60.0725 O.2     1  ZINC001018118384   -0.5200
     18 N18       -10.4095   -2.2624   59.6988 N.am    1  ZINC001018118384   -0.4500
     19 C19        -9.7446   -2.4630   60.9888 C.3     1  ZINC001018118384    0.1100
     20 O20       -10.3871   -3.0541   58.7850 O.3     1  ZINC001018118384    0.0000
     21 C21       -13.5342   -3.8019   53.9495 C.3     1  ZINC001018118384   -0.1300
     22 C22       -14.3844   -2.5298   53.9769 C.3     1  ZINC001018118384   -0.1300
     23 C23       -13.9635   -1.6136   52.8299 C.3     1  ZINC001018118384    0.1400
     24 H24       -14.1942   -2.0910   51.8774 H       1  ZINC001018118384    0.0700
     25 C25       -14.7147   -0.2847   52.9326 C.3     1  ZINC001018118384   -0.1400
     26 C26        -9.8425    0.2272   54.1614 C.2     1  ZINC001018118384    0.0400
     27 N27        -8.5551    0.4151   53.7869 N.pl3   1  ZINC001018118384   -0.5600
     28 H28        -6.8254   -0.3745   51.3920 H       1  ZINC001018118384    0.0900
     29 H29        -7.5436    1.0732   50.6463 H       1  ZINC001018118384    0.1000
     30 H30        -6.5647    1.2264   52.1250 H       1  ZINC001018118384    0.0800
     31 H31       -11.6528   -3.0845   52.0477 H       1  ZINC001018118384    0.0800
     32 H32       -10.5935   -2.1870   53.1656 H       1  ZINC001018118384    0.1500
     33 H33       -12.2338   -1.8304   55.5149 H       1  ZINC001018118384    0.4100
     34 H34       -12.2008   -0.7499   57.4317 H       1  ZINC001018118384    0.1900
     35 H35       -10.4262   -2.9665   61.6744 H       1  ZINC001018118384    0.0800
     36 H36        -8.8539   -3.0751   60.8471 H       1  ZINC001018118384    0.0900
     37 H37        -9.4591   -1.4968   61.4045 H       1  ZINC001018118384    0.1100
     38 H38       -13.6644   -4.3051   52.9915 H       1  ZINC001018118384    0.0900
     39 H39       -13.8486   -4.4664   54.7542 H       1  ZINC001018118384    0.0800
     40 H40       -15.4365   -2.7929   53.8668 H       1  ZINC001018118384    0.0800
     41 H41       -14.2356   -2.0131   54.9250 H       1  ZINC001018118384    0.0600
     42 H42       -14.4944    0.1839   53.8918 H       1  ZINC001018118384    0.0700
     43 H43       -14.3981    0.3750   52.1248 H       1  ZINC001018118384    0.0800
     44 H44       -15.7866   -0.4662   52.8546 H       1  ZINC001018118384    0.0400
     45 H45       -10.2177    0.1786   55.1729 H       1  ZINC001018118384    0.1900
     46 H46        -7.7982    0.5347   54.3815 H       1  ZINC001018118384    0.4300
@<TRIPOS>BOND
     1     1     2    1
     2     1    28    1
     3     1    29    1
     4     1    30    1
     5     2    27    1
     6     2     3    2
     7     3     4    1
     8     4     5    1
     9     4    26    2
    10     5     6    2
    11     5     7   am
    12     7    23    1
    13     7     8    1
    14     8     9    1
    15     8    31    1
    16     8    32    1
    17     9    10    1
    18     9    11    1
    19     9    21    1
    20    11    12   am
    21    11    33    1
    22    12    13    2
    23    12    14    1
    24    14    20    1
    25    14    15    2
    26    15    16    1
    27    15    34    1
    28    16    17    2
    29    16    18   am
    30    18    19    1
    31    18    20    1
    32    19    35    1
    33    19    36    1
    34    19    37    1
    35    21    22    1
    36    21    38    1
    37    21    39    1
    38    22    23    1
    39    22    40    1
    40    22    41    1
    41    23    24    1
    42    23    25    1
    43    25    42    1
    44    25    43    1
    45    25    44    1
    46    26    27    1
    47    26    45    1
    48    27    46    1
@<TRIPOS>SUBSTRUCTURE
     1 ZINC001018118384        1 TEMP              0 ****  ****    0 ROOT


##########                                Name:    ZINC000931749147
##########                DOCK_Rotatable_Bonds:                   5
##########                         Heavy_Atoms:                  25
##########                    Molecular_Weight:             354.397
##########                DOCK_Rotatable_Bonds:                   5
##########                       Formal_Charge:        -4.76837e-07
##########                     HBond_Acceptors:                   7
##########                        HBond_Donors:                   1
##########                         Heavy_Atoms:                  25
##########                          Grid_Score:          -26.942440
##########                     Grid_vdw_energy:          -26.286848
##########                      Grid_es_energy:           -0.655591
##########           Internal_energy_repulsive:          157.787994

@<TRIPOS>MOLECULE
ZINC000931749147
 49 51 1 0 0
SMALL
USER_CHARGES


@<TRIPOS>ATOM
      1 C1        -10.0944    0.0422   55.1358 C.3     1  ZINC000931749147   -0.1100
      2 C2        -10.6240   -1.0798   54.2804 C.ar    1  ZINC000931749147   -0.1300
      3 C3        -10.3868   -1.0823   52.9128 C.ar    1  ZINC000931749147    0.1800
      4 N4         -9.6547   -0.0422   52.3265 N.am    1  ZINC000931749147   -0.6800
      5 C5         -8.4380   -0.2873   51.8013 C.2     1  ZINC000931749147    0.7100
      6 O6         -7.9758   -1.4115   51.8365 O.2     1  ZINC000931749147   -0.5500
      7 N7         -7.7335    0.7135   51.2370 N.am    1  ZINC000931749147   -0.6200
      8 C8         -6.4031    0.4702   50.6572 C.3     1  ZINC000931749147    0.0700
      9 C9         -5.4303    1.5094   51.2261 C.3     1  ZINC000931749147    0.0500
     10 O10        -5.9755    2.8174   51.0375 O.3     1  ZINC000931749147   -0.3700
     11 C11        -7.2084    3.0424   51.7255 C.3     1  ZINC000931749147    0.0500
     12 C12        -8.2746    2.0807   51.1771 C.3     1  ZINC000931749147    0.1300
     13 H13        -8.5102    2.3432   50.1458 H       1  ZINC000931749147    0.0900
     14 C14        -9.5393    2.1708   52.0335 C.3     1  ZINC000931749147   -0.1100
     15 C15        -9.9379    3.6385   52.2015 C.3     1  ZINC000931749147   -0.1000
     16 C16       -10.1829    4.2637   50.8247 C.3     1  ZINC000931749147   -0.1500
     17 C17       -10.6570    5.7080   51.0059 C.3     1  ZINC000931749147    0.0600
     18 O18       -11.8394    5.7228   51.8084 O.3     1  ZINC000931749147   -0.3800
     19 C19       -11.6586    5.1936   53.1235 C.3     1  ZINC000931749147    0.0600
     20 C20       -11.2248    3.7286   53.0274 C.3     1  ZINC000931749147   -0.1500
     21 C21       -10.8758   -2.1172   52.1267 C.ar    1  ZINC000931749147   -0.1200
     22 C22       -11.5974   -3.1429   52.7058 C.ar    1  ZINC000931749147   -0.1100
     23 C23       -11.8339   -3.1405   54.0697 C.ar    1  ZINC000931749147    0.0500
     24 F24       -12.5398   -4.1447   54.6340 F       1  ZINC000931749147   -0.1300
     25 C25       -11.3420   -2.1113   54.8583 C.ar    1  ZINC000931749147    0.0900
     26 F26       -11.5737   -2.1103   56.1893 F       1  ZINC000931749147   -0.1200
     27 H27        -9.0952   -0.2112   55.4898 H       1  ZINC000931749147    0.0800
     28 H28       -10.0498    0.9582   54.5466 H       1  ZINC000931749147    0.0700
     29 H29       -10.7555    0.1914   55.9896 H       1  ZINC000931749147    0.0800
     30 H30       -10.0234    0.8546   52.2984 H       1  ZINC000931749147    0.4100
     31 H31        -6.0654   -0.5319   50.9211 H       1  ZINC000931749147    0.0800
     32 H32        -6.4519    0.5681   49.5727 H       1  ZINC000931749147    0.0900
     33 H33        -5.2834    1.3262   52.2905 H       1  ZINC000931749147    0.0600
     34 H34        -4.4743    1.4352   50.7079 H       1  ZINC000931749147    0.1100
     35 H35        -7.0679    2.8648   52.7917 H       1  ZINC000931749147    0.0600
     36 H36        -7.5316    4.0712   51.5665 H       1  ZINC000931749147    0.1100
     37 H37       -10.3485    1.6282   51.5448 H       1  ZINC000931749147    0.1100
     38 H38        -9.3471    1.7322   53.0126 H       1  ZINC000931749147    0.0700
     39 H39        -9.1390    4.1772   52.7111 H       1  ZINC000931749147    0.0700
     40 H40        -9.2568    4.2537   50.2501 H       1  ZINC000931749147    0.0700
     41 H41       -10.9467    3.6932   50.2963 H       1  ZINC000931749147    0.0700
     42 H42        -9.8763    6.2879   51.4983 H       1  ZINC000931749147    0.0500
     43 H43       -10.8740    6.1445   50.0309 H       1  ZINC000931749147    0.0900
     44 H44       -10.8910    5.7667   53.6435 H       1  ZINC000931749147    0.0500
     45 H45       -12.5971    5.2595   53.6740 H       1  ZINC000931749147    0.0900
     46 H46       -12.0096    3.1473   52.5434 H       1  ZINC000931749147    0.0700
     47 H47       -11.0437    3.3360   54.0279 H       1  ZINC000931749147    0.0700
     48 H48       -10.6922   -2.1201   51.0624 H       1  ZINC000931749147    0.1800
     49 H49       -11.9776   -3.9475   52.0939 H       1  ZINC000931749147    0.1500
@<TRIPOS>BOND
     1     1     2    1
     2     1    27    1
     3     1    28    1
     4     1    29    1
     5     2    25   ar
     6     2     3   ar
     7     3     4    1
     8     3    21   ar
     9     4     5   am
    10     4    30    1
    11     5     6    2
    12     5     7   am
    13     7    12    1
    14     7     8    1
    15     8     9    1
    16     8    31    1
    17     8    32    1
    18     9    10    1
    19     9    33    1
    20     9    34    1
    21    10    11    1
    22    11    12    1
    23    11    35    1
    24    11    36    1
    25    12    13    1
    26    12    14    1
    27    14    15    1
    28    14    37    1
    29    14    38    1
    30    15    20    1
    31    15    16    1
    32    15    39    1
    33    16    17    1
    34    16    40    1
    35    16    41    1
    36    17    18    1
    37    17    42    1
    38    17    43    1
    39    18    19    1
    40    19    20    1
    41    19    44    1
    42    19    45    1
    43    20    46    1
    44    20    47    1
    45    21    22   ar
    46    21    48    1
    47    22    23   ar
    48    22    49    1
    49    23    24    1
    50    23    25   ar
    51    25    26    1
@<TRIPOS>SUBSTRUCTURE
     1 ZINC000931749147        1 TEMP              0 ****  ****    0 ROOT


##########                                Name:    ZINC001211202056
##########                DOCK_Rotatable_Bonds:                   4
##########                         Heavy_Atoms:                  23
##########                    Molecular_Weight:             386.181
##########                DOCK_Rotatable_Bonds:                   4
##########                       Formal_Charge:           0.0199999
##########                     HBond_Acceptors:                  11
##########                        HBond_Donors:                   3
##########                         Heavy_Atoms:                  23
##########                          Grid_Score:          -26.917389
##########                     Grid_vdw_energy:          -26.717478
##########                      Grid_es_energy:           -0.199912
##########           Internal_energy_repulsive:            5.729320

@<TRIPOS>MOLECULE
ZINC001211202056
 31 32 1 0 0
SMALL
USER_CHARGES


@<TRIPOS>ATOM
      1 N1        -14.3949    1.2403   61.7652 N.pl3   1  ZINC001211202056   -0.8500
      2 C2        -13.3064    0.3745   61.6289 C.ar    1  ZINC001211202056    0.2900
      3 C3        -12.0406    0.7798   62.0302 C.ar    1  ZINC001211202056   -0.2000
      4 C4        -10.9664   -0.0784   61.8941 C.ar    1  ZINC001211202056    0.0400
      5 C5        -11.1503   -1.3397   61.3587 C.ar    1  ZINC001211202056   -0.7300
      6 S6         -9.7772   -2.4305   61.1872 S.o2    1  ZINC001211202056    2.6900
      7 O7         -8.7949   -1.9878   62.1137 O.2     1  ZINC001211202056   -0.9400
      8 O8        -10.3090   -3.7482   61.1886 O.2     1  ZINC001211202056   -0.9300
      9 N9         -9.1412   -2.1844   59.6781 N.am    1  ZINC001211202056   -1.0500
     10 C10        -9.9295   -2.3987   58.5439 C.ar    1  ZINC001211202056    0.1600
     11 C11       -10.3966   -3.6740   58.2390 C.ar    1  ZINC001211202056   -0.1200
     12 C12       -11.1751   -3.8364   57.1039 C.ar    1  ZINC001211202056   -0.0800
     13 C13       -11.4605   -2.7367   56.3176 C.ar    1  ZINC001211202056    0.0400
     14 C14       -12.3065   -2.9066   55.0820 C.3     1  ZINC001211202056    0.5300
     15 F15       -12.2301   -1.7480   54.3016 F       1  ZINC001211202056   -0.1700
     16 F16       -11.8385   -3.9984   54.3429 F       1  ZINC001211202056   -0.1600
     17 F17       -13.6361   -3.1313   55.4545 F       1  ZINC001211202056   -0.1700
     18 N18       -11.0034   -1.5401   56.6331 N.ar    1  ZINC001211202056   -0.4100
     19 C19       -10.2636   -1.3401   57.7061 C.ar    1  ZINC001211202056    0.1600
     20 Cl20       -9.6912    0.2579   58.0701 Cl      1  ZINC001211202056    0.0000
     21 C21       -12.4097   -1.7474   60.9575 C.ar    1  ZINC001211202056    0.0400
     22 C22       -13.4895   -0.8966   61.0964 C.ar    1  ZINC001211202056   -0.1400
     23 Cl23      -15.0700   -1.4088   60.5929 Cl      1  ZINC001211202056   -0.0500
     24 H24       -15.2796    0.9545   61.4881 H       1  ZINC001211202056    0.4100
     25 H25       -14.2666    2.1254   62.1405 H       1  ZINC001211202056    0.4100
     26 H26       -11.8956    1.7650   62.4480 H       1  ZINC001211202056    0.1400
     27 H27        -9.9816    0.2365   62.2062 H       1  ZINC001211202056    0.1500
     28 H28        -8.2216   -1.8916   59.5813 H       1  ZINC001211202056    0.4400
     29 H29       -10.1579   -4.5164   58.8714 H       1  ZINC001211202056    0.2000
     30 H30       -11.5542   -4.8118   56.8369 H       1  ZINC001211202056    0.1700
     31 H31       -12.5499   -2.7334   60.5396 H       1  ZINC001211202056    0.1500
@<TRIPOS>BOND
     1     1     2    1
     2     1    24    1
     3     1    25    1
     4     2    22   ar
     5     2     3   ar
     6     3     4   ar
     7     3    26    1
     8     4     5   ar
     9     4    27    1
    10     5     6    1
    11     5    21   ar
    12     6     7    2
    13     6     8    2
    14     6     9   am
    15     9    10    1
    16     9    28    1
    17    10    19   ar
    18    10    11   ar
    19    11    12   ar
    20    11    29    1
    21    12    13   ar
    22    12    30    1
    23    13    14    1
    24    13    18   ar
    25    14    15    1
    26    14    16    1
    27    14    17    1
    28    18    19   ar
    29    19    20    1
    30    21    22   ar
    31    21    31    1
    32    22    23    1
@<TRIPOS>SUBSTRUCTURE
     1 ZINC001211202056        1 TEMP              0 ****  ****    0 ROOT


##########                                Name:    ZINC000820901229
##########                DOCK_Rotatable_Bonds:                   3
##########                         Heavy_Atoms:                  18
##########                    Molecular_Weight:             331.233
##########                DOCK_Rotatable_Bonds:                   3
##########                       Formal_Charge:           0.0099999
##########                     HBond_Acceptors:                   5
##########                        HBond_Donors:                   1
##########                         Heavy_Atoms:                  18
##########                          Grid_Score:          -26.324743
##########                     Grid_vdw_energy:          -25.767132
##########                      Grid_es_energy:           -0.557612
##########           Internal_energy_repulsive:            2.728129

@<TRIPOS>MOLECULE
ZINC000820901229
 33 35 1 0 0
SMALL
USER_CHARGES


@<TRIPOS>ATOM
      1 O1        -10.3164   -2.9445   52.5462 O.2     1  ZINC000820901229   -0.5300
      2 C2        -10.5680   -1.9014   53.1189 C.2     1  ZINC000820901229    0.6000
      3 N3        -11.4837   -1.8794   54.1076 N.am    1  ZINC000820901229   -0.7100
      4 C4        -12.1802   -3.1107   54.4885 C.3     1  ZINC000820901229    0.1600
      5 H5        -11.5208   -3.9675   54.3503 H       1  ZINC000820901229    0.1000
      6 C6        -13.4459   -3.2814   53.6330 C.3     1  ZINC000820901229   -0.1300
      7 C7        -14.2346   -4.5214   54.0434 C.3     1  ZINC000820901229   -0.1100
      8 C8        -14.5672   -4.5035   55.5445 C.3     1  ZINC000820901229   -0.1100
      9 C9        -13.2562   -4.4000   56.2963 C.3     1  ZINC000820901229    0.0800
     10 H10       -12.5894   -5.2036   55.9836 H       1  ZINC000820901229    0.0700
     11 O11       -13.3130   -4.3500   57.7173 O.3     1  ZINC000820901229   -0.3700
     12 C12       -12.0255   -3.8264   58.1320 C.3     1  ZINC000820901229    0.0500
     13 C13       -11.4915   -2.9542   56.9663 C.3     1  ZINC000820901229   -0.1500
     14 C14       -12.6217   -3.0271   55.9390 C.3     1  ZINC000820901229   -0.1400
     15 H15       -13.3319   -2.2133   56.0855 H       1  ZINC000820901229    0.0900
     16 C16        -9.8679   -0.6638   52.7362 C.2     1  ZINC000820901229    0.0100
     17 C17       -10.2165    0.5564   53.2015 C.2     1  ZINC000820901229   -0.2200
     18 S18        -9.1682    1.7255   52.5261 S.3     1  ZINC000820901229    0.3100
     19 C19        -8.3244    0.5187   51.6611 C.2     1  ZINC000820901229   -0.0100
     20 Br20       -6.8538    0.8426   50.5173 Br      1  ZINC000820901229    0.0700
     21 N21        -8.8251   -0.6429   51.9009 N.2     1  ZINC000820901229   -0.4100
     22 H22       -11.6814   -1.0483   54.5671 H       1  ZINC000820901229    0.4100
     23 H23       -14.0780   -2.4015   53.7525 H       1  ZINC000820901229    0.0700
     24 H24       -13.1584   -3.3725   52.5857 H       1  ZINC000820901229    0.0700
     25 H25       -15.1628   -4.5584   53.4730 H       1  ZINC000820901229    0.0800
     26 H26       -13.6442   -5.4098   53.8195 H       1  ZINC000820901229    0.0700
     27 H27       -15.1954   -3.6429   55.7748 H       1  ZINC000820901229    0.0700
     28 H28       -15.0815   -5.4238   55.8213 H       1  ZINC000820901229    0.0800
     29 H29       -12.1437   -3.2168   59.0278 H       1  ZINC000820901229    0.0900
     30 H30       -11.3360   -4.6478   58.3270 H       1  ZINC000820901229    0.0600
     31 H31       -11.3376   -1.9259   57.2937 H       1  ZINC000820901229    0.0800
     32 H32       -10.5696   -3.3730   56.5627 H       1  ZINC000820901229    0.0800
     33 H33       -11.0256    0.7596   53.8875 H       1  ZINC000820901229    0.2000
@<TRIPOS>BOND
     1     1     2    2
     2     2     3   am
     3     2    16    1
     4     3     4    1
     5     3    22    1
     6     4     5    1
     7     4    14    1
     8     4     6    1
     9     6     7    1
    10     6    23    1
    11     6    24    1
    12     7     8    1
    13     7    25    1
    14     7    26    1
    15     8     9    1
    16     8    27    1
    17     8    28    1
    18     9    10    1
    19     9    14    1
    20     9    11    1
    21    11    12    1
    22    12    13    1
    23    12    29    1
    24    12    30    1
    25    13    14    1
    26    13    31    1
    27    13    32    1
    28    14    15    1
    29    16    21    1
    30    16    17    2
    31    17    18    1
    32    17    33    1
    33    18    19    1
    34    19    20    1
    35    19    21    2
@<TRIPOS>SUBSTRUCTURE
     1 ZINC000820901229        1 TEMP              0 ****  ****    0 ROOT


##########                                Name:    ZINC000883773972
##########                DOCK_Rotatable_Bonds:                   4
##########                         Heavy_Atoms:                  23
##########                    Molecular_Weight:             343.447
##########                DOCK_Rotatable_Bonds:                   4
##########                       Formal_Charge:                0.01
##########                     HBond_Acceptors:                   8
##########                        HBond_Donors:                   1
##########                         Heavy_Atoms:                  23
##########                          Grid_Score:          -26.086887
##########                     Grid_vdw_energy:          -24.368977
##########                      Grid_es_energy:           -1.717912
##########           Internal_energy_repulsive:            5.216391

@<TRIPOS>MOLECULE
ZINC000883773972
 48 50 1 0 0
SMALL
USER_CHARGES


@<TRIPOS>ATOM
      1 C1        -11.4248   -2.3799   51.9841 C.3     1  ZINC000883773972   -0.1700
      2 C2        -11.7867   -3.4022   53.0306 C.2     1  ZINC000883773972    0.5300
      3 O3        -12.0364   -4.5430   52.7031 O.2     1  ZINC000883773972   -0.5400
      4 N4        -11.8327   -3.0488   54.3304 N.am    1  ZINC000883773972   -0.6200
      5 C5        -11.5635   -1.7137   54.8892 C.3     1  ZINC000883773972    0.1100
      6 C6        -12.4509   -1.5793   56.1378 C.3     1  ZINC000883773972   -0.1100
      7 H7        -13.3249   -0.9558   55.9493 H       1  ZINC000883773972    0.1000
      8 C8        -11.6075   -1.0445   57.3072 C.3     1  ZINC000883773972    0.1300
      9 N9        -11.8901   -1.9192   58.4570 N.am    1  ZINC000883773972   -0.6400
     10 C10       -11.8877   -1.5660   59.7577 C.2     1  ZINC000883773972    0.7300
     11 O11       -12.1416   -2.3925   60.6125 O.2     1  ZINC000883773972   -0.5800
     12 N12       -11.6038   -0.2966   60.1107 N.am    1  ZINC000883773972   -0.7400
     13 C13       -11.6029    0.0877   61.5244 C.3     1  ZINC000883773972    0.1800
     14 H14       -12.4212   -0.4178   62.0372 H       1  ZINC000883773972    0.1100
     15 C15       -10.2773   -0.3216   62.1597 C.3     1  ZINC000883773972   -0.1500
     16 C16       -10.3369   -0.1658   63.6765 C.3     1  ZINC000883773972   -0.1000
     17 C17       -10.3751    1.3182   64.0487 C.3     1  ZINC000883773972   -0.5600
     18 H18        -9.5127    1.8251   63.6157 H       1  ZINC000883773972    0.1400
     19 C19       -10.3441    1.4651   65.5713 C.3     1  ZINC000883773972   -0.1400
     20 S20       -11.9030    2.0526   63.3957 S.o2    1  ZINC000883773972    2.4200
     21 O21       -13.0137    1.3770   63.9695 O.2     1  ZINC000883773972   -0.9200
     22 O22       -11.8136    3.4661   63.5110 O.2     1  ZINC000883773972   -0.9300
     23 C23       -11.7900    1.6022   61.6392 C.3     1  ZINC000883773972   -0.6300
     24 C24       -12.1759   -3.2553   57.9087 C.3     1  ZINC000883773972    0.1100
     25 C25       -12.8442   -3.0281   56.5178 C.3     1  ZINC000883773972   -0.1100
     26 H26       -13.9226   -3.1815   56.5558 H       1  ZINC000883773972    0.1000
     27 C27       -12.1682   -3.9209   55.4679 C.3     1  ZINC000883773972    0.1100
     28 H28       -11.4395   -2.8471   50.9994 H       1  ZINC000883773972    0.0900
     29 H29       -12.1462   -1.5631   52.0094 H       1  ZINC000883773972    0.0900
     30 H30       -10.4272   -1.9901   52.1865 H       1  ZINC000883773972    0.0900
     31 H31       -10.5127   -1.6290   55.1661 H       1  ZINC000883773972    0.0800
     32 H32       -11.8224   -0.9444   54.1616 H       1  ZINC000883773972    0.0900
     33 H33       -10.5479   -1.0885   57.0551 H       1  ZINC000883773972    0.0700
     34 H34       -11.8953   -0.0188   57.5378 H       1  ZINC000883773972    0.0900
     35 H35       -11.4000    0.3624   59.4288 H       1  ZINC000883773972    0.4000
     36 H36       -10.0672   -1.3624   61.9136 H       1  ZINC000883773972    0.0900
     37 H37        -9.4801    0.3082   61.7649 H       1  ZINC000883773972    0.0800
     38 H38       -11.2330   -0.6570   64.0557 H       1  ZINC000883773972    0.0900
     39 H39        -9.4563   -0.6281   64.1225 H       1  ZINC000883773972    0.0900
     40 H40        -9.4301    1.0169   65.9610 H       1  ZINC000883773972    0.0800
     41 H41       -10.3714    2.5223   65.8350 H       1  ZINC000883773972    0.0700
     42 H42       -11.2088    0.9606   66.0026 H       1  ZINC000883773972    0.0800
     43 H43       -10.9399    2.1123   61.1858 H       1  ZINC000883773972    0.1400
     44 H44       -12.7073    1.8943   61.1279 H       1  ZINC000883773972    0.1400
     45 H45       -11.2504   -3.8203   57.7983 H       1  ZINC000883773972    0.0800
     46 H46       -12.8648   -3.7889   58.5636 H       1  ZINC000883773972    0.0800
     47 H47       -12.8451   -4.7195   55.1643 H       1  ZINC000883773972    0.0900
     48 H48       -11.2482   -4.3430   55.8722 H       1  ZINC000883773972    0.0700
@<TRIPOS>BOND
     1     1     2    1
     2     1    28    1
     3     1    29    1
     4     1    30    1
     5     2     3    2
     6     2     4   am
     7     4    27    1
     8     4     5    1
     9     5     6    1
    10     5    31    1
    11     5    32    1
    12     6     7    1
    13     6    25    1
    14     6     8    1
    15     8     9    1
    16     8    33    1
    17     8    34    1
    18     9    10   am
    19     9    24    1
    20    10    11    2
    21    10    12   am
    22    12    13    1
    23    12    35    1
    24    13    14    1
    25    13    23    1
    26    13    15    1
    27    15    16    1
    28    15    36    1
    29    15    37    1
    30    16    17    1
    31    16    38    1
    32    16    39    1
    33    17    18    1
    34    17    19    1
    35    17    20    1
    36    19    40    1
    37    19    41    1
    38    19    42    1
    39    20    21    2
    40    20    22    2
    41    20    23    1
    42    23    43    1
    43    23    44    1
    44    24    25    1
    45    24    45    1
    46    24    46    1
    47    25    26    1
    48    25    27    1
    49    27    47    1
    50    27    48    1
@<TRIPOS>SUBSTRUCTURE
     1 ZINC000883773972        1 TEMP              0 ****  ****    0 ROOT


##########                                Name:    ZINC001023407238
##########                DOCK_Rotatable_Bonds:                   7
##########                         Heavy_Atoms:                  25
##########                    Molecular_Weight:             349.387
##########                DOCK_Rotatable_Bonds:                   7
##########                       Formal_Charge:          -0.0300008
##########                     HBond_Acceptors:                   8
##########                        HBond_Donors:                   2
##########                         Heavy_Atoms:                  25
##########                          Grid_Score:          -25.883648
##########                     Grid_vdw_energy:          -26.055649
##########                      Grid_es_energy:            0.172001
##########           Internal_energy_repulsive:            8.528790

@<TRIPOS>MOLECULE
ZINC001023407238
 48 50 1 0 0
SMALL
USER_CHARGES


@<TRIPOS>ATOM
      1 C1        -12.4938   -1.6630   51.9013 C.3     1  ZINC001023407238   -0.0900
      2 C2        -13.8704   -2.1772   52.2355 C.2     1  ZINC001023407238   -0.1100
      3 C3        -14.1739   -3.1924   53.1176 C.2     1  ZINC001023407238   -0.0500
      4 C4        -13.2135   -3.9725   53.9054 C.2     1  ZINC001023407238    0.6100
      5 O5        -12.6088   -4.8936   53.3889 O.2     1  ZINC001023407238   -0.5100
      6 N6        -13.0009   -3.6691   55.2012 N.am    1  ZINC001023407238   -0.6100
      7 C7        -12.0712   -4.3652   56.1028 C.3     1  ZINC001023407238    0.0800
      8 C8        -12.1432   -3.6560   57.4716 C.3     1  ZINC001023407238    0.0900
      9 H9        -12.8317   -4.1744   58.1388 H       1  ZINC001023407238    0.0800
     10 O10       -10.8449   -3.5623   58.0612 O.3     1  ZINC001023407238   -0.5500
     11 C11       -12.6871   -2.2496   57.1062 C.3     1  ZINC001023407238    0.1400
     12 H12       -11.8839   -1.5968   56.7642 H       1  ZINC001023407238    0.1200
     13 N13       -13.4000   -1.6519   58.2379 N.am    1  ZINC001023407238   -0.7200
     14 C14       -12.7438   -0.8506   59.1004 C.2     1  ZINC001023407238    0.5200
     15 O15       -11.5629   -0.6255   58.9403 O.2     1  ZINC001023407238   -0.5300
     16 C16       -13.4776   -0.2343   60.2636 C.3     1  ZINC001023407238   -0.1300
     17 C17       -14.5076   -1.2295   60.8017 C.3     1  ZINC001023407238   -0.1100
     18 H18       -15.2883   -1.4146   60.0638 H       1  ZINC001023407238    0.1100
     19 C19       -13.8271   -2.5507   61.2266 C.3     1  ZINC001023407238    0.0600
     20 O20       -14.5892   -2.9953   62.3877 O.3     1  ZINC001023407238   -0.3500
     21 C21       -15.0716   -1.9346   63.0506 C.2     1  ZINC001023407238    0.4800
     22 O22       -15.4222   -1.9388   64.2069 O.2     1  ZINC001023407238   -0.4600
     23 C23       -15.1145   -0.7284   62.1311 C.3     1  ZINC001023407238   -0.1800
     24 C24       -13.6574   -2.5805   55.9477 C.3     1  ZINC001023407238    0.1000
     25 N25       -15.5425   -3.3402   53.1248 N.pl3   1  ZINC001023407238   -0.4200
     26 C26       -16.2929   -4.3105   53.9258 C.3     1  ZINC001023407238    0.0700
     27 C27       -16.0801   -2.4386   52.2674 C.2     1  ZINC001023407238    0.0100
     28 C28       -15.0810   -1.7105   51.7140 C.2     1  ZINC001023407238   -0.2000
     29 H29       -12.2302   -0.8581   52.5874 H       1  ZINC001023407238    0.0600
     30 H30       -11.7705   -2.4729   51.9963 H       1  ZINC001023407238    0.0600
     31 H31       -12.4851   -1.2862   50.8785 H       1  ZINC001023407238    0.0700
     32 H32       -12.3694   -5.4081   56.2096 H       1  ZINC001023407238    0.0800
     33 H33       -11.0572   -4.3059   55.7075 H       1  ZINC001023407238    0.0800
     34 H34       -10.7376   -2.8095   58.6586 H       1  ZINC001023407238    0.3900
     35 H35       -14.3442   -1.8329   58.3665 H       1  ZINC001023407238    0.4100
     36 H36       -12.7664    0.0141   61.0513 H       1  ZINC001023407238    0.1000
     37 H37       -13.9856    0.6718   59.9337 H       1  ZINC001023407238    0.1100
     38 H38       -13.8907   -3.2865   60.4249 H       1  ZINC001023407238    0.1200
     39 H39       -12.7870   -2.3726   61.4993 H       1  ZINC001023407238    0.0800
     40 H40       -14.5108    0.0819   62.5398 H       1  ZINC001023407238    0.1100
     41 H41       -16.1434   -0.3995   61.9846 H       1  ZINC001023407238    0.1200
     42 H42       -13.7969   -1.7083   55.3089 H       1  ZINC001023407238    0.0900
     43 H43       -14.6153   -2.9211   56.3407 H       1  ZINC001023407238    0.0800
     44 H44       -16.6227   -3.8395   54.8518 H       1  ZINC001023407238    0.0800
     45 H45       -17.1614   -4.6522   53.3627 H       1  ZINC001023407238    0.0900
     46 H46       -15.6530   -5.1615   54.1588 H       1  ZINC001023407238    0.0800
     47 H47       -17.1334   -2.3179   52.0620 H       1  ZINC001023407238    0.1700
     48 H48       -15.1980   -0.9154   50.9924 H       1  ZINC001023407238    0.1400
@<TRIPOS>BOND
     1     1     2    1
     2     1    29    1
     3     1    30    1
     4     1    31    1
     5     2    28    1
     6     2     3    2
     7     3     4    1
     8     3    25    1
     9     4     5    2
    10     4     6   am
    11     6    24    1
    12     6     7    1
    13     7     8    1
    14     7    32    1
    15     7    33    1
    16     8     9    1
    17     8    10    1
    18     8    11    1
    19    10    34    1
    20    11    12    1
    21    11    13    1
    22    11    24    1
    23    13    14   am
    24    13    35    1
    25    14    15    2
    26    14    16    1
    27    16    17    1
    28    16    36    1
    29    16    37    1
    30    17    18    1
    31    17    23    1
    32    17    19    1
    33    19    20    1
    34    19    38    1
    35    19    39    1
    36    20    21    1
    37    21    22    2
    38    21    23    1
    39    23    40    1
    40    23    41    1
    41    24    42    1
    42    24    43    1
    43    25    26    1
    44    25    27    1
    45    26    44    1
    46    26    45    1
    47    26    46    1
    48    27    28    2
    49    27    47    1
    50    28    48    1
@<TRIPOS>SUBSTRUCTURE
     1 ZINC001023407238        1 TEMP              0 ****  ****    0 ROOT


##########                                Name:    ZINC000950547210
##########                DOCK_Rotatable_Bonds:                   5
##########                         Heavy_Atoms:                  25
##########                    Molecular_Weight:              346.47
##########                DOCK_Rotatable_Bonds:                   5
##########                       Formal_Charge:         5.58794e-07
##########                     HBond_Acceptors:                   5
##########                        HBond_Donors:                   1
##########                         Heavy_Atoms:                  25
##########                          Grid_Score:          -25.645992
##########                     Grid_vdw_energy:          -25.192814
##########                      Grid_es_energy:           -0.453179
##########           Internal_energy_repulsive:           21.868086

@<TRIPOS>MOLECULE
ZINC000950547210
 55 58 1 0 0
SMALL
USER_CHARGES


@<TRIPOS>ATOM
      1 O1        -11.0773   -4.2369   58.0139 O.2     1  ZINC000950547210   -0.5200
      2 C2        -11.7328   -3.3264   58.4746 C.2     1  ZINC000950547210    0.5200
      3 N3        -12.7272   -2.7775   57.7492 N.am    1  ZINC000950547210   -0.7300
      4 C4        -13.0125   -3.2767   56.4018 C.3     1  ZINC000950547210    0.1300
      5 H5        -12.0850   -3.6016   55.9302 H       1  ZINC000950547210    0.0900
      6 C6        -13.9820   -4.4577   56.4892 C.3     1  ZINC000950547210   -0.1300
      7 C7        -14.2550   -5.0008   55.0847 C.3     1  ZINC000950547210   -0.1300
      8 C8        -14.9043   -3.9040   54.2348 C.3     1  ZINC000950547210    0.1000
      9 N9        -14.0457   -2.7122   54.2645 N.am    1  ZINC000950547210   -0.6100
     10 C10       -13.6314   -2.1356   53.1188 C.2     1  ZINC000950547210    0.5600
     11 O11       -13.9681   -2.6016   52.0472 O.2     1  ZINC000950547210   -0.5200
     12 C12       -12.7719   -0.9427   53.1647 C.2     1  ZINC000950547210   -0.1400
     13 C13       -13.2895    0.2009   53.5757 C.2     1  ZINC000950547210   -0.1500
     14 C14       -12.4902    1.4715   53.6470 C.3     1  ZINC000950547210    0.0900
     15 O15       -11.0938    1.1778   53.5729 O.3     1  ZINC000950547210   -0.3700
     16 C16       -10.7563    0.3251   52.4722 C.3     1  ZINC000950547210    0.0600
     17 C17       -11.3321   -1.0683   52.7477 C.3     1  ZINC000950547210   -0.1100
     18 C18       -13.6469   -2.1603   55.5665 C.3     1  ZINC000950547210    0.1000
     19 C19       -11.4393   -2.8129   59.8607 C.3     1  ZINC000950547210   -0.1000
     20 H20       -10.9967   -3.6104   60.4576 H       1  ZINC000950547210    0.1000
     21 C21       -12.7398   -2.3460   60.5176 C.3     1  ZINC000950547210   -0.1100
     22 C22       -12.6296   -0.8608   60.8684 C.3     1  ZINC000950547210   -0.0900
     23 C23       -11.4646   -0.6508   61.8376 C.3     1  ZINC000950547210   -0.1100
     24 C24       -10.1641   -1.1176   61.1807 C.3     1  ZINC000950547210   -0.1100
     25 C25       -10.4620   -1.6389   59.7734 C.3     1  ZINC000950547210   -0.0600
     26 C26       -11.0833   -0.5194   58.9357 C.3     1  ZINC000950547210   -0.1300
     27 C27       -12.3838   -0.0526   59.5927 C.3     1  ZINC000950547210   -0.1200
     28 H28       -13.2540   -2.0519   58.1193 H       1  ZINC000950547210    0.4000
     29 H29       -13.5425   -5.2436   57.1034 H       1  ZINC000950547210    0.0800
     30 H30       -14.9180   -4.1264   56.9388 H       1  ZINC000950547210    0.0700
     31 H31       -13.3160   -5.3092   54.6250 H       1  ZINC000950547210    0.0700
     32 H32       -14.9271   -5.8564   55.1498 H       1  ZINC000950547210    0.0900
     33 H33       -15.0103   -4.2525   53.2075 H       1  ZINC000950547210    0.0900
     34 H34       -15.8849   -3.6582   54.6424 H       1  ZINC000950547210    0.0700
     35 H35       -14.3279    0.2239   53.8716 H       1  ZINC000950547210    0.1200
     36 H36       -12.7677    2.1202   52.8162 H       1  ZINC000950547210    0.0700
     37 H37       -12.7033    1.9801   54.5871 H       1  ZINC000950547210    0.1100
     38 H38       -11.1833    0.7269   51.5533 H       1  ZINC000950547210    0.0600
     39 H39        -9.6722    0.2603   52.3781 H       1  ZINC000950547210    0.1000
     40 H40       -10.7587   -1.5477   53.5411 H       1  ZINC000950547210    0.0900
     41 H41       -11.2724   -1.6714   51.8418 H       1  ZINC000950547210    0.0900
     42 H42       -14.5247   -1.7722   56.0832 H       1  ZINC000950547210    0.0700
     43 H43       -12.9239   -1.3583   55.4175 H       1  ZINC000950547210    0.1000
     44 H44       -13.5698   -2.4957   59.8272 H       1  ZINC000950547210    0.0700
     45 H45       -12.9150   -2.9218   61.4265 H       1  ZINC000950547210    0.0700
     46 H46       -13.5561   -0.5283   61.3363 H       1  ZINC000950547210    0.0700
     47 H47       -11.3861    0.4073   62.0874 H       1  ZINC000950547210    0.0600
     48 H48       -11.6397   -1.2266   62.7464 H       1  ZINC000950547210    0.0600
     49 H49        -9.4678   -0.2812   61.1184 H       1  ZINC000950547210    0.0700
     50 H50        -9.7215   -1.9151   61.7774 H       1  ZINC000950547210    0.0600
     51 H51        -9.5356   -1.9715   59.3055 H       1  ZINC000950547210    0.0800
     52 H52       -10.3871    0.3170   58.8736 H       1  ZINC000950547210    0.0600
     53 H53       -11.2956   -0.8907   57.9332 H       1  ZINC000950547210    0.0900
     54 H54       -13.2138   -0.2022   58.9022 H       1  ZINC000950547210    0.0600
     55 H55       -12.3053    1.0055   59.8425 H       1  ZINC000950547210    0.0600
@<TRIPOS>BOND
     1     1     2    2
     2     2     3   am
     3     2    19    1
     4     3     4    1
     5     3    28    1
     6     4     5    1
     7     4    18    1
     8     4     6    1
     9     6     7    1
    10     6    29    1
    11     6    30    1
    12     7     8    1
    13     7    31    1
    14     7    32    1
    15     8     9    1
    16     8    33    1
    17     8    34    1
    18     9    10   am
    19     9    18    1
    20    10    11    2
    21    10    12    1
    22    12    17    1
    23    12    13    2
    24    13    14    1
    25    13    35    1
    26    14    15    1
    27    14    36    1
    28    14    37    1
    29    15    16    1
    30    16    17    1
    31    16    38    1
    32    16    39    1
    33    17    40    1
    34    17    41    1
    35    18    42    1
    36    18    43    1
    37    19    20    1
    38    19    25    1
    39    19    21    1
    40    21    22    1
    41    21    44    1
    42    21    45    1
    43    22    27    1
    44    22    23    1
    45    22    46    1
    46    23    24    1
    47    23    47    1
    48    23    48    1
    49    24    25    1
    50    24    49    1
    51    24    50    1
    52    25    26    1
    53    25    51    1
    54    26    27    1
    55    26    52    1
    56    26    53    1
    57    27    54    1
    58    27    55    1
@<TRIPOS>SUBSTRUCTURE
     1 ZINC000950547210        1 TEMP              0 ****  ****    0 ROOT


##########                                Name:    ZINC000569288350
##########                DOCK_Rotatable_Bonds:                   3
##########                         Heavy_Atoms:                  19
##########                    Molecular_Weight:             393.559
##########                DOCK_Rotatable_Bonds:                   3
##########                       Formal_Charge:           0.0299999
##########                     HBond_Acceptors:                   5
##########                        HBond_Donors:                   1
##########                         Heavy_Atoms:                  19
##########                          Grid_Score:          -21.641388
##########                     Grid_vdw_energy:          -19.775696
##########                      Grid_es_energy:           -1.865692
##########           Internal_energy_repulsive:            4.836717

@<TRIPOS>MOLECULE
ZINC000569288350
 26 27 1 0 0
SMALL
USER_CHARGES


@<TRIPOS>ATOM
      1 O1        -13.0037   -2.9415   60.3554 O.2     1  ZINC000569288350   -0.4800
      2 C2        -12.3424   -1.9367   60.1775 C.2     1  ZINC000569288350    0.5700
      3 N3        -12.5241   -1.1986   59.0646 N.am    1  ZINC000569288350   -0.6600
      4 C4        -13.4697   -1.5917   58.1112 C.ar    1  ZINC000569288350    0.1800
      5 C5        -14.8192   -1.6121   58.4373 C.ar    1  ZINC000569288350   -0.1200
      6 C6        -15.7516   -2.0005   57.4947 C.ar    1  ZINC000569288350   -0.0600
      7 C7        -15.3435   -2.3696   56.2267 C.ar    1  ZINC000569288350   -0.1500
      8 C8        -13.9984   -2.3510   55.8962 C.ar    1  ZINC000569288350    0.1300
      9 F9        -13.6026   -2.7118   54.6559 F       1  ZINC000569288350   -0.1200
     10 C10       -13.0605   -1.9569   56.8345 C.ar    1  ZINC000569288350   -0.1000
     11 Cl11      -11.3746   -1.9326   56.4214 Cl      1  ZINC000569288350   -0.0400
     12 C12       -11.3448   -1.5220   61.1835 C.ar    1  ZINC000569288350   -0.1400
     13 C13       -11.6335   -0.4816   62.0724 C.ar    1  ZINC000569288350    0.1400
     14 F14       -12.8275    0.1478   62.0141 F       1  ZINC000569288350   -0.1200
     15 C15       -10.6929   -0.0995   63.0116 C.ar    1  ZINC000569288350   -0.1300
     16 C16        -9.4711   -0.7431   63.0718 C.ar    1  ZINC000569288350   -0.0600
     17 C17        -9.1792   -1.7733   62.1944 C.ar    1  ZINC000569288350   -0.0900
     18 C18       -10.1091   -2.1706   61.2563 C.ar    1  ZINC000569288350   -0.0500
     19 I19        -9.6627   -3.7303   59.9307 I       1  ZINC000569288350    0.0000
     20 H20       -11.9994   -0.3949   58.9246 H       1  ZINC000569288350    0.4200
     21 H21       -15.1400   -1.3247   59.4278 H       1  ZINC000569288350    0.1600
     22 H22       -16.8011   -2.0161   57.7491 H       1  ZINC000569288350    0.1500
     23 H23       -16.0747   -2.6735   55.4922 H       1  ZINC000569288350    0.1500
     24 H24       -10.9135    0.7035   63.6992 H       1  ZINC000569288350    0.1500
     25 H25        -8.7402   -0.4405   63.8070 H       1  ZINC000569288350    0.1500
     26 H26        -8.2221   -2.2708   62.2478 H       1  ZINC000569288350    0.1500
@<TRIPOS>BOND
     1     1     2    2
     2     2     3   am
     3     2    12    1
     4     3     4    1
     5     3    20    1
     6     4    10   ar
     7     4     5   ar
     8     5     6   ar
     9     5    21    1
    10     6     7   ar
    11     6    22    1
    12     7     8   ar
    13     7    23    1
    14     8     9    1
    15     8    10   ar
    16    10    11    1
    17    12    18   ar
    18    12    13   ar
    19    13    14    1
    20    13    15   ar
    21    15    16   ar
    22    15    24    1
    23    16    17   ar
    24    16    25    1
    25    17    18   ar
    26    17    26    1
    27    18    19    1
@<TRIPOS>SUBSTRUCTURE
     1 ZINC000569288350        1 TEMP              0 ****  ****    0 ROOT

